@<TRIPOS>MOLECULE
WAR-Site2_1h.pdb
   39    41     1     0     0
SMALL
bcc


@<TRIPOS>ATOM
      1 C           10.9060     2.1220   -13.2230 ca         1 UNL      -0.157800
      2 C1           9.2830     3.7870   -14.7000 c          1 UNL       0.748800
      3 C2           9.1120     2.4020   -14.8430 cc         1 UNL      -0.316400
      4 C3           9.9000     1.5450   -14.1280 cd         1 UNL       0.257900
      5 C4          11.7460     1.3050   -12.4640 ca         1 UNL      -0.050000
      6 C5          12.6770     1.8770   -11.6270 ca         1 UNL      -0.166000
      7 C6          12.7830     3.2580   -11.5360 ca         1 UNL      -0.075000
      8 C7          11.9600     4.0750   -12.2800 ca         1 UNL      -0.154000
      9 C8          11.0140     3.5180   -13.1310 ca         1 UNL       0.161100
     10 O           10.2010     4.3050   -13.8680 os         1 UNL      -0.324200
     11 O1           8.5740     4.5420   -15.3420 o          1 UNL      -0.589500
     12 O2           9.7600     0.2050   -14.2490 oh         1 UNL      -0.481100
     13 H            9.6680     0.0170   -15.1920 ho         1 UNL       0.447000
     14 C9           8.0660     1.8620   -15.7830 c3         1 UNL       0.049800
     15 C10          7.9650     2.7710   -17.0090 c3         1 UNL      -0.177400
     16 C11          6.9940     2.1780   -17.9970 c          1 UNL       0.572100
     17 C12          5.7430     2.9310   -18.3700 c3         1 UNL      -0.202100
     18 O3           7.2170     1.0990   -18.4890 o          1 UNL      -0.546100
     19 C13          6.7350     1.8160   -15.0820 ca         1 UNL      -0.098300
     20 C14          6.2150     2.9620   -14.5080 ca         1 UNL      -0.125000
     21 C15          4.9930     2.9200   -13.8640 ca         1 UNL      -0.128000
     22 C16          4.2900     1.7320   -13.7940 ca         1 UNL      -0.127000
     23 C17          4.8090     0.5880   -14.3670 ca         1 UNL      -0.128000
     24 C18          6.0290     0.6310   -15.0160 ca         1 UNL      -0.125000
     25 H1          11.6690     0.2780   -12.5300 ha         1 UNL       0.157000
     26 H2          13.2990     1.2760   -11.0640 ha         1 UNL       0.143000
     27 H3          13.4850     3.6770   -10.9050 ha         1 UNL       0.142000
     28 H4          12.0460     5.1010   -12.2050 ha         1 UNL       0.162000
     29 H5           8.3400     0.8750   -16.0920 hc         1 UNL       0.071700
     30 H6           8.9280     2.8610   -17.4660 hc         1 UNL       0.087200
     31 H7           7.6200     3.7380   -16.7080 hc         1 UNL       0.087200
     32 H8           5.7140     3.8600   -17.8400 hc         1 UNL       0.066033
     33 H9           4.8850     2.3460   -18.1120 hc         1 UNL       0.066033
     34 H10          5.7420     3.1210   -19.4230 hc         1 UNL       0.066033
     35 H11          6.7400     3.8490   -14.5610 ha         1 UNL       0.142000
     36 H12          4.6060     3.7750   -13.4360 ha         1 UNL       0.134000
     37 H13          3.3770     1.7000   -13.3130 ha         1 UNL       0.133000
     38 H14          4.2860    -0.3000   -14.3110 ha         1 UNL       0.134000
     39 H15          6.4120    -0.2230   -15.4510 ha         1 UNL       0.142000
@<TRIPOS>BOND
     1     1     4 1   
     2     1     9 ar  
     3     1     5 ar  
     4     2    11 2   
     5     2     3 1   
     6     2    10 1   
     7     3    14 1   
     8     3     4 2   
     9     4    12 1   
    10     5     6 ar  
    11     5    25 1   
    12     6     7 ar  
    13     6    26 1   
    14     7     8 ar  
    15     7    27 1   
    16     8     9 ar  
    17     8    28 1   
    18     9    10 1   
    19    12    13 1   
    20    14    15 1   
    21    14    19 1   
    22    14    29 1   
    23    15    16 1   
    24    15    30 1   
    25    15    31 1   
    26    16    18 2   
    27    16    17 1   
    28    17    32 1   
    29    17    33 1   
    30    17    34 1   
    31    19    24 ar  
    32    19    20 ar  
    33    20    21 ar  
    34    20    35 1   
    35    21    22 ar  
    36    21    36 1   
    37    22    23 ar  
    38    22    37 1   
    39    23    24 ar  
    40    23    38 1   
    41    24    39 1   
@<TRIPOS>SUBSTRUCTURE
     1 UNL         1 TEMP              0 ****  ****    0 ROOT
