@<TRIPOS>MOLECULE
ENA-Site1_1h.pdb
 111 111 0 0 0
SMALL
GASTEIGER

@<TRIPOS>ATOM
      1  O         12.3210   -2.9900    2.8750 O.3     1  UNL1       -0.4503
      2  O          9.0870   -1.7050   -0.8210 O.3     1  UNL1       -0.4503
      3  O         12.1460   -5.4320   -0.3580 O.3     1  UNL1       -0.4503
      4  O         10.1860   -1.5580    2.5390 O.2     1  UNL1       -0.2715
      5  O         15.0750   -7.0840    0.4040 O.2     1  UNL1       -0.2715
      6  O          9.4190   -3.9960    0.4360 O.2     1  UNL1       -0.2715
      7  O         14.5680   -3.5040    2.9660 O.2     1  UNL1       -0.2487
      8  O         11.3280   -1.4100   -1.2930 O.2     1  UNL1       -0.2487
      9  O         12.1190   -7.7330   -0.3420 O.2     1  UNL1       -0.2487
     10  N         11.3590   -0.0850    1.1830 N.am    1  UNL1       -0.2878
     11  N         13.9620   -6.1060    2.1880 N.am    1  UNL1       -0.2878
     12  N          9.7400   -5.2910   -1.4630 N.am    1  UNL1       -0.2878
     13  C         10.1970    0.0650    0.2840 C.3     1  UNL1        0.1253
     14  C         12.8800   -5.2550    2.7270 C.3     1  UNL1        0.1253
     15  C         10.0460   -6.4990   -0.6630 C.3     1  UNL1        0.1253
     16  C         12.5610   -1.5680    2.7980 C.3     1  UNL1        0.1808
     17  C          9.0300   -2.8830   -1.6480 C.3     1  UNL1        0.1808
     18  C         13.5590   -5.3070   -0.1760 C.3     1  UNL1        0.1808
     19  C         11.2610   -1.0570    2.1900 C.2     1  UNL1        0.2571
     20  C         14.2550   -6.2580    0.8230 C.2     1  UNL1        0.2571
     21  C          9.4160   -4.0990   -0.7970 C.2     1  UNL1        0.2571
     22  C         13.3940   -3.8320    2.8750 C.2     1  UNL1        0.3288
     23  C         10.3020   -1.0880   -0.7060 C.2     1  UNL1        0.3288
     24  C         11.5560   -6.6540   -0.4790 C.2     1  UNL1        0.3288
     25  C         12.5810    0.6690    0.8960 C.3     1  UNL1        0.0041
     26  C         14.7850   -6.8420    3.1480 C.3     1  UNL1        0.0041
     27  C          9.8720   -5.4200   -2.9180 C.3     1  UNL1        0.0041
     28  C         12.7680   -0.9930    4.1870 C.3     1  UNL1       -0.0008
     29  C         11.6340   -0.0350    4.5480 C.3     1  UNL1       -0.0588
     30  C         14.1180   -0.2850    4.2820 C.3     1  UNL1       -0.0588
     31  C         12.2770   -5.7340    4.0460 C.3     1  UNL1       -0.0151
     32  C         12.8280   -4.8950    5.2010 C.3     1  UNL1       -0.0602
     33  C         10.7390   -5.6720    4.0430 C.3     1  UNL1       -0.0511
     34  C         10.1020   -6.4280    2.8860 C.3     1  UNL1       -0.0650
     35  C         10.0860    1.3830   -0.4690 C.3     1  UNL1       -0.0151
     36  C          9.8010    1.1120   -1.9490 C.3     1  UNL1       -0.0602
     37  C          8.9960    2.3020    0.1110 C.3     1  UNL1       -0.0511
     38  C          7.5890    1.9440   -0.3510 C.3     1  UNL1       -0.0650
     39  C         14.2100   -5.3770   -1.5590 C.3     1  UNL1       -0.0008
     40  C         13.1700   -5.7160   -2.6240 C.3     1  UNL1       -0.0588
     41  C         14.9080   -4.0590   -1.8900 C.3     1  UNL1       -0.0588
     42  C          7.5940   -3.0190   -2.1340 C.3     1  UNL1       -0.0008
     43  C          6.8430   -1.6970   -1.9750 C.3     1  UNL1       -0.0588
     44  C          6.8730   -4.1370   -1.3830 C.3     1  UNL1       -0.0588
     45  C          9.4170   -7.7740   -1.2230 C.3     1  UNL1       -0.0151
     46  C          7.8970   -7.6080   -1.3210 C.3     1  UNL1       -0.0602
     47  C          9.9870   -8.1580   -2.6020 C.3     1  UNL1       -0.0511
     48  C         10.5960   -9.5510   -2.6390 C.3     1  UNL1       -0.0650
     49  H          9.3140    0.0570    0.8880 H       1  UNL1        0.0619
     50  H         12.0790   -5.3110    2.0200 H       1  UNL1        0.0619
     51  H          9.5950   -6.3530    0.2960 H       1  UNL1        0.0619
     52  H         13.4320   -1.3010    2.2360 H       1  UNL1        0.0835
     53  H          9.7000   -2.8170   -2.4800 H       1  UNL1        0.0835
     54  H         13.7000   -4.3630    0.3080 H       1  UNL1        0.0835
     55  H         12.4010    1.3460    0.0870 H       1  UNL1        0.0429
     56  H         13.3630   -0.0090    0.6260 H       1  UNL1        0.0429
     57  H         12.8720    1.2210    1.7650 H       1  UNL1        0.0429
     58  H         15.5230   -7.4120    2.6220 H       1  UNL1        0.0429
     59  H         14.1640   -7.5010    3.7180 H       1  UNL1        0.0429
     60  H         15.2700   -6.1510    3.8060 H       1  UNL1        0.0429
     61  H          9.6260   -4.4880   -3.3820 H       1  UNL1        0.0429
     62  H          9.2070   -6.1810   -3.2700 H       1  UNL1        0.0429
     63  H         10.8790   -5.6860   -3.1630 H       1  UNL1        0.0429
     64  H         12.7620   -1.8020    4.8880 H       1  UNL1        0.0336
     65  H         11.6240    0.7820    3.8570 H       1  UNL1        0.0234
     66  H         11.7840    0.3380    5.5390 H       1  UNL1        0.0234
     67  H         10.7000   -0.5540    4.5000 H       1  UNL1        0.0234
     68  H         14.1440    0.5280    3.5870 H       1  UNL1        0.0234
     69  H         14.9010   -0.9770    4.0500 H       1  UNL1        0.0234
     70  H         14.2550    0.0890    5.2750 H       1  UNL1        0.0234
     71  H         12.5550   -6.7600    4.1720 H       1  UNL1        0.0321
     72  H         12.5450   -3.8720    5.0660 H       1  UNL1        0.0233
     73  H         13.8950   -4.9700    5.2190 H       1  UNL1        0.0233
     74  H         12.4290   -5.2560    6.1260 H       1  UNL1        0.0233
     75  H         10.4420   -4.6460    3.9810 H       1  UNL1        0.0266
     76  H         10.4040   -6.1390    4.9460 H       1  UNL1        0.0266
     77  H         10.4130   -5.9910    1.9600 H       1  UNL1        0.0230
     78  H          9.0370   -6.3720    2.9670 H       1  UNL1        0.0230
     79  H         10.4090   -7.4530    2.9170 H       1  UNL1        0.0230
     80  H         11.0220    1.8910   -0.3610 H       1  UNL1        0.0321
     81  H          8.8640    0.6040   -2.0450 H       1  UNL1        0.0233
     82  H         10.5800    0.5020   -2.3560 H       1  UNL1        0.0233
     83  H          9.7600    2.0400   -2.4800 H       1  UNL1        0.0233
     84  H          9.2060    3.3070   -0.1900 H       1  UNL1        0.0266
     85  H          9.0180    2.1830    1.1740 H       1  UNL1        0.0266
     86  H          7.5250    2.0500   -1.4140 H       1  UNL1        0.0230
     87  H          6.8830    2.5980    0.1160 H       1  UNL1        0.0230
     88  H          7.3710    0.9320   -0.0800 H       1  UNL1        0.0230
     89  H         14.9460   -6.1540   -1.5470 H       1  UNL1        0.0336
     90  H         12.4240   -4.9490   -2.6510 H       1  UNL1        0.0234
     91  H         12.7100   -6.6530   -2.3880 H       1  UNL1        0.0234
     92  H         13.6470   -5.7840   -3.5790 H       1  UNL1        0.0234
     93  H         14.1870   -3.2680   -1.9070 H       1  UNL1        0.0234
     94  H         15.3770   -4.1350   -2.8490 H       1  UNL1        0.0234
     95  H         15.6490   -3.8510   -1.1460 H       1  UNL1        0.0234
     96  H          7.6160   -3.2720   -3.1740 H       1  UNL1        0.0336
     97  H          6.8100   -1.4280   -0.9400 H       1  UNL1        0.0234
     98  H          5.8460   -1.8060   -2.3470 H       1  UNL1        0.0234
     99  H          7.3470   -0.9320   -2.5270 H       1  UNL1        0.0234
    100  H          6.8400   -3.9020   -0.3400 H       1  UNL1        0.0234
    101  H          7.3980   -5.0580   -1.5250 H       1  UNL1        0.0234
    102  H          5.8760   -4.2330   -1.7580 H       1  UNL1        0.0234
    103  H          9.6580   -8.5670   -0.5460 H       1  UNL1        0.0321
    104  H          7.6680   -6.8130   -2.0000 H       1  UNL1        0.0233
    105  H          7.5000   -7.3770   -0.3550 H       1  UNL1        0.0233
    106  H          7.4610   -8.5180   -1.6770 H       1  UNL1        0.0233
    107  H         10.7450   -7.4500   -2.8650 H       1  UNL1        0.0266
    108  H          9.1700   -8.1530   -3.2930 H       1  UNL1        0.0266
    109  H         11.4200   -9.5980   -1.9580 H       1  UNL1        0.0230
    110  H         10.9390   -9.7640   -3.6300 H       1  UNL1        0.0230
    111  H          9.8570  -10.2710   -2.3550 H       1  UNL1        0.0230
@<TRIPOS>BOND
     1     1    16    1
     2     1    22    1
     3     2    17    1
     4     2    23    1
     5     3    24    1
     6     3    18    1
     7     4    19    2
     8     5    20    2
     9     6    21    2
    10     7    22    2
    11     8    23    2
    12     9    24    2
    13    10    13    1
    14    10    25    1
    15    10    19   am
    16    11    20   am
    17    11    14    1
    18    11    26    1
    19    12    27    1
    20    12    21   am
    21    12    15    1
    22    13    23    1
    23    13    35    1
    24    13    49    1
    25    14    22    1
    26    14    31    1
    27    14    50    1
    28    15    45    1
    29    15    24    1
    30    15    51    1
    31    16    19    1
    32    16    28    1
    33    16    52    1
    34    17    42    1
    35    17    21    1
    36    17    53    1
    37    18    39    1
    38    18    20    1
    39    18    54    1
    40    25    55    1
    41    25    56    1
    42    25    57    1
    43    26    58    1
    44    26    59    1
    45    26    60    1
    46    27    61    1
    47    27    62    1
    48    27    63    1
    49    28    30    1
    50    28    29    1
    51    28    64    1
    52    29    65    1
    53    29    66    1
    54    29    67    1
    55    30    68    1
    56    30    69    1
    57    30    70    1
    58    31    33    1
    59    31    32    1
    60    31    71    1
    61    32    72    1
    62    32    73    1
    63    32    74    1
    64    33    34    1
    65    33    75    1
    66    33    76    1
    67    34    77    1
    68    34    78    1
    69    34    79    1
    70    35    36    1
    71    35    37    1
    72    35    80    1
    73    36    81    1
    74    36    82    1
    75    36    83    1
    76    37    38    1
    77    37    84    1
    78    37    85    1
    79    38    86    1
    80    38    87    1
    81    38    88    1
    82    39    40    1
    83    39    41    1
    84    39    89    1
    85    40    90    1
    86    40    91    1
    87    40    92    1
    88    41    93    1
    89    41    94    1
    90    41    95    1
    91    42    43    1
    92    42    44    1
    93    42    96    1
    94    43    97    1
    95    43    98    1
    96    43    99    1
    97    44   100    1
    98    44   101    1
    99    44   102    1
   100    45    47    1
   101    45    46    1
   102    45   103    1
   103    46   104    1
   104    46   105    1
   105    46   106    1
   106    47    48    1
   107    47   107    1
   108    47   108    1
   109    48   109    1
   110    48   110    1
   111    48   111    1
