@<TRIPOS>MOLECULE
ENA1-Site2_1h.pdb
 108 108 0 0 0
SMALL
GASTEIGER

@<TRIPOS>ATOM
      1  O          6.8430   -1.3700  -24.8890 O.3     1  UNL1       -0.4503
      2  O          8.5040    2.6150  -22.6970 O.3     1  UNL1       -0.4503
      3  O         11.4430   -0.1450  -23.1280 O.3     1  UNL1       -0.4503
      4  O          8.3050    0.7840  -25.2900 O.2     1  UNL1       -0.2715
      5  O          7.0690   -1.3410  -22.5920 O.2     1  UNL1       -0.2487
      6  O         10.3580   -1.7710  -24.8280 O.2     1  UNL1       -0.2715
      7  O          8.6800    4.8800  -23.0680 O.2     1  UNL1       -0.2487
      8  O         10.2550    4.5050  -20.4050 O.2     1  UNL1       -0.2715
      9  O         12.2630    0.6190  -21.1110 O.2     1  UNL1       -0.2487
     10  N          6.7000    2.3170  -24.6160 N.am    1  UNL1       -0.2878
     11  N          9.3270   -2.9290  -23.1010 N.am    1  UNL1       -0.2878
     12  N         11.5300    3.2030  -21.8390 N.am    1  UNL1       -0.2878
     13  C          7.6430    3.4540  -24.7450 C.3     1  UNL1        0.1253
     14  C          8.1040   -3.1100  -23.9070 C.3     1  UNL1        0.1253
     15  C          6.1280   -0.1190  -24.8710 C.3     1  UNL1        0.1808
     16  C         11.6420    2.1730  -22.8930 C.3     1  UNL1        0.1250
     17  C         11.3390   -1.5090  -22.6670 C.3     1  UNL1        0.1808
     18  C          9.1050    2.6410  -21.3980 C.3     1  UNL1        0.1808
     19  C          7.1440    1.0270  -24.9410 C.2     1  UNL1        0.2571
     20  C          7.2830   -1.8470  -23.6850 C.2     1  UNL1        0.3288
     21  C         10.3230   -2.0980  -23.6360 C.2     1  UNL1        0.2571
     22  C          8.2970    3.7640  -23.3980 C.2     1  UNL1        0.3288
     23  C         10.3380    3.5460  -21.1800 C.2     1  UNL1        0.2571
     24  C         11.8370    0.8140  -22.2400 C.2     1  UNL1        0.3288
     25  C          5.3720    2.6280  -24.0780 C.3     1  UNL1        0.0041
     26  C          9.3770   -3.4930  -21.7500 C.3     1  UNL1        0.0041
     27  C         12.7490    3.9160  -21.4570 C.3     1  UNL1        0.0041
     28  C          5.2320   -0.1010  -26.1030 C.3     1  UNL1       -0.0008
     29  C          6.0620    0.0850  -27.3710 C.3     1  UNL1       -0.0588
     30  C          4.4060   -1.3840  -26.1880 C.3     1  UNL1       -0.0588
     31  C          7.2580   -4.3360  -23.5920 C.3     1  UNL1       -0.0151
     32  C          5.8100   -4.0880  -24.0210 C.3     1  UNL1       -0.0602
     33  C          7.7940   -5.6070  -24.2750 C.3     1  UNL1       -0.0511
     34  C          7.2610   -6.8970  -23.6650 C.3     1  UNL1       -0.0650
     35  C          7.0100    4.7010  -25.3610 C.3     1  UNL1       -0.0151
     36  C          6.5950    5.6730  -24.2530 C.3     1  UNL1       -0.0602
     37  C          7.9530    5.4110  -26.3490 C.3     1  UNL1       -0.0511
     38  C          8.8930    4.4640  -27.0800 C.3     1  UNL1       -0.0650
     39  C         12.6780   -2.2110  -22.7990 C.3     1  UNL1       -0.0008
     40  C         13.2710   -1.9800  -24.1870 C.3     1  UNL1       -0.0588
     41  C         12.5300   -3.7060  -22.5210 C.3     1  UNL1       -0.0588
     42  C          8.0010    2.9460  -20.3850 C.3     1  UNL1       -0.0008
     43  C          6.6640    2.3730  -20.8550 C.3     1  UNL1       -0.0588
     44  C          8.3650    2.3950  -19.0080 C.3     1  UNL1       -0.0588
     45  C         12.7410    2.4200  -23.9250 C.3     1  UNL1       -0.0177
     46  C         12.1800    2.3290  -25.3440 C.3     1  UNL1       -0.0605
     47  C         13.8890    1.4290  -23.7400 C.3     1  UNL1       -0.0605
     48  H          8.4020    3.1470  -25.4340 H       1  UNL1        0.0619
     49  H          8.4040   -3.2760  -24.9210 H       1  UNL1        0.0619
     50  H          5.5430   -0.0070  -23.9820 H       1  UNL1        0.0835
     51  H         10.7270    2.2150  -23.4470 H       1  UNL1        0.0619
     52  H         11.0560   -1.6030  -21.6390 H       1  UNL1        0.0835
     53  H          9.5390    1.6720  -21.2670 H       1  UNL1        0.0835
     54  H          4.7870    1.7330  -24.0330 H       1  UNL1        0.0429
     55  H          4.8870    3.3400  -24.7130 H       1  UNL1        0.0429
     56  H          5.4730    3.0380  -23.0950 H       1  UNL1        0.0429
     57  H          8.5050   -4.0890  -21.5800 H       1  UNL1        0.0429
     58  H          9.4120   -2.6990  -21.0330 H       1  UNL1        0.0429
     59  H         10.2510   -4.1020  -21.6500 H       1  UNL1        0.0429
     60  H         13.5710    3.5530  -22.0370 H       1  UNL1        0.0429
     61  H         12.9460    3.7540  -20.4180 H       1  UNL1        0.0429
     62  H         12.6210    4.9630  -21.6360 H       1  UNL1        0.0429
     63  H          4.5610    0.7270  -26.0150 H       1  UNL1        0.0336
     64  H          6.7410   -0.7350  -27.4760 H       1  UNL1        0.0234
     65  H          6.6140    0.9990  -27.3050 H       1  UNL1        0.0234
     66  H          5.4120    0.1220  -28.2200 H       1  UNL1        0.0234
     67  H          5.0620   -2.2250  -26.2770 H       1  UNL1        0.0234
     68  H          3.7650   -1.3400  -27.0440 H       1  UNL1        0.0234
     69  H          3.8130   -1.4860  -25.3030 H       1  UNL1        0.0234
     70  H          7.3060   -4.4970  -22.5350 H       1  UNL1        0.0321
     71  H          5.7740   -3.9290  -25.0780 H       1  UNL1        0.0233
     72  H          5.4320   -3.2230  -23.5170 H       1  UNL1        0.0233
     73  H          5.2120   -4.9390  -23.7680 H       1  UNL1        0.0233
     74  H          8.8610   -5.6100  -24.1950 H       1  UNL1        0.0266
     75  H          7.4630   -5.5800  -25.2920 H       1  UNL1        0.0266
     76  H          7.5710   -6.9630  -22.6430 H       1  UNL1        0.0230
     77  H          7.6460   -7.7340  -24.2090 H       1  UNL1        0.0230
     78  H          6.1920   -6.9000  -23.7140 H       1  UNL1        0.0230
     79  H          6.1500    4.3820  -25.9130 H       1  UNL1        0.0321
     80  H          7.4620    5.9840  -23.7090 H       1  UNL1        0.0233
     81  H          5.9120    5.1860  -23.5880 H       1  UNL1        0.0233
     82  H          6.1210    6.5280  -24.6880 H       1  UNL1        0.0233
     83  H          8.5420    6.1190  -25.8050 H       1  UNL1        0.0266
     84  H          7.3380    5.8770  -27.0900 H       1  UNL1        0.0266
     85  H          9.5280    3.9750  -26.3720 H       1  UNL1        0.0230
     86  H          9.4910    5.0190  -27.7720 H       1  UNL1        0.0230
     87  H          8.3200    3.7320  -27.6110 H       1  UNL1        0.0230
     88  H         13.3470   -1.7980  -22.0740 H       1  UNL1        0.0336
     89  H         12.6150   -2.3870  -24.9280 H       1  UNL1        0.0234
     90  H         14.2240   -2.4610  -24.2520 H       1  UNL1        0.0234
     91  H         13.3890   -0.9300  -24.3540 H       1  UNL1        0.0234
     92  H         11.8630   -4.1380  -23.2380 H       1  UNL1        0.0234
     93  H         12.1370   -3.8480  -21.5360 H       1  UNL1        0.0234
     94  H         13.4870   -4.1790  -22.5950 H       1  UNL1        0.0234
     95  H          7.9040    4.0090  -20.3070 H       1  UNL1        0.0336
     96  H          6.7420    1.3090  -20.9390 H       1  UNL1        0.0234
     97  H          6.4130    2.7890  -21.8090 H       1  UNL1        0.0234
     98  H          5.9010    2.6200  -20.1470 H       1  UNL1        0.0234
     99  H          8.4670    1.3310  -19.0650 H       1  UNL1        0.0234
    100  H          7.5930    2.6420  -18.3090 H       1  UNL1        0.0234
    101  H          9.2900    2.8250  -18.6850 H       1  UNL1        0.0234
    102  H         13.1220    3.4090  -23.7750 H       1  UNL1        0.0319
    103  H         11.7940    1.3450  -25.5120 H       1  UNL1        0.0233
    104  H         12.9590    2.5320  -26.0490 H       1  UNL1        0.0233
    105  H         11.3950    3.0460  -25.4640 H       1  UNL1        0.0233
    106  H         13.5270    0.4330  -23.8860 H       1  UNL1        0.0233
    107  H         14.2850    1.5230  -22.7510 H       1  UNL1        0.0233
    108  H         14.6580    1.6370  -24.4540 H       1  UNL1        0.0233
@<TRIPOS>BOND
     1     1    15    1
     2     1    20    1
     3     2    22    1
     4     2    18    1
     5     3    17    1
     6     3    24    1
     7     4    19    2
     8     5    20    2
     9     6    21    2
    10     7    22    2
    11     8    23    2
    12     9    24    2
    13    10    19   am
    14    10    13    1
    15    10    25    1
    16    11    14    1
    17    11    21   am
    18    11    26    1
    19    12    16    1
    20    12    27    1
    21    12    23   am
    22    13    35    1
    23    13    22    1
    24    13    48    1
    25    14    20    1
    26    14    31    1
    27    14    49    1
    28    15    28    1
    29    15    19    1
    30    15    50    1
    31    16    45    1
    32    16    24    1
    33    16    51    1
    34    17    21    1
    35    17    39    1
    36    17    52    1
    37    18    23    1
    38    18    42    1
    39    18    53    1
    40    25    54    1
    41    25    55    1
    42    25    56    1
    43    26    57    1
    44    26    58    1
    45    26    59    1
    46    27    60    1
    47    27    61    1
    48    27    62    1
    49    28    29    1
    50    28    30    1
    51    28    63    1
    52    29    64    1
    53    29    65    1
    54    29    66    1
    55    30    67    1
    56    30    68    1
    57    30    69    1
    58    31    33    1
    59    31    32    1
    60    31    70    1
    61    32    71    1
    62    32    72    1
    63    32    73    1
    64    33    34    1
    65    33    74    1
    66    33    75    1
    67    34    76    1
    68    34    77    1
    69    34    78    1
    70    35    37    1
    71    35    36    1
    72    35    79    1
    73    36    80    1
    74    36    81    1
    75    36    82    1
    76    37    38    1
    77    37    83    1
    78    37    84    1
    79    38    85    1
    80    38    86    1
    81    38    87    1
    82    39    40    1
    83    39    41    1
    84    39    88    1
    85    40    89    1
    86    40    90    1
    87    40    91    1
    88    41    92    1
    89    41    93    1
    90    41    94    1
    91    42    43    1
    92    42    44    1
    93    42    95    1
    94    43    96    1
    95    43    97    1
    96    43    98    1
    97    44    99    1
    98    44   100    1
    99    44   101    1
   100    45    46    1
   101    45    47    1
   102    45   102    1
   103    46   103    1
   104    46   104    1
   105    46   105    1
   106    47   106    1
   107    47   107    1
   108    47   108    1
