@<TRIPOS>MOLECULE
Results/Site2/HOLO/ENB1/ENB1-Site2_1.pdb
 105 105 0 0 0
SMALL
GASTEIGER

@<TRIPOS>ATOM
      1  O          5.7090    6.4350  -24.3440 O.3     1  UNL1       -0.4503
      2  O          9.0780   10.4280  -24.3180 O.3     1  UNL1       -0.4503
      3  O         10.8410    6.0810  -24.9020 O.3     1  UNL1       -0.4503
      4  O          6.6990    9.2310  -22.5550 O.2     1  UNL1       -0.2715
      5  O          6.6950    7.3930  -26.1960 O.2     1  UNL1       -0.2487
      6  O          7.8540    6.5420  -22.8940 O.2     1  UNL1       -0.2715
      7  O         12.7710    8.6680  -24.6000 O.2     1  UNL1       -0.2715
      8  O          9.8910   12.5280  -24.7730 O.2     1  UNL1       -0.2487
      9  O         12.0980    6.2760  -22.9840 O.2     1  UNL1       -0.2487
     10  N          6.1640    9.7790  -24.7450 N.am    1  UNL1       -0.2878
     11  N          8.9130    4.6870  -23.7820 N.am    1  UNL1       -0.2878
     12  N         10.8710    9.1530  -25.8510 N.am    1  UNL1       -0.2878
     13  C          5.1730    8.6860  -24.8050 C.3     1  UNL1        0.1253
     14  C         10.0970    4.9320  -22.9300 C.3     1  UNL1        0.1250
     15  C         11.0410   10.6120  -25.6950 C.3     1  UNL1        0.1250
     16  C          8.0040   10.9810  -23.5320 C.3     1  UNL1        0.1808
     17  C          6.5510    5.2660  -24.4430 C.3     1  UNL1        0.1808
     18  C         11.7580    6.8110  -25.7370 C.3     1  UNL1        0.1808
     19  C          6.9030    9.9240  -23.5570 C.2     1  UNL1        0.2571
     20  C          5.9470    7.4480  -25.2290 C.2     1  UNL1        0.3288
     21  C          7.8240    5.5600  -23.6430 C.2     1  UNL1        0.2571
     22  C         11.8500    8.2900  -25.3310 C.2     1  UNL1        0.2571
     23  C          9.9420   11.3080  -24.8960 C.2     1  UNL1        0.3288
     24  C         11.1220    5.8510  -23.5910 C.2     1  UNL1        0.3288
     25  C          6.3360   10.6140  -25.9390 C.3     1  UNL1        0.0041
     26  C          8.9730    3.5770  -24.7360 C.3     1  UNL1        0.0041
     27  C          9.7750    8.6870  -26.7020 C.3     1  UNL1        0.0041
     28  C          5.7790    4.1130  -23.8190 C.3     1  UNL1       -0.0008
     29  C          4.3430    4.5310  -23.5080 C.3     1  UNL1       -0.0588
     30  C          5.7930    2.8930  -24.7400 C.3     1  UNL1       -0.0588
     31  C          3.9870    8.9090  -25.7360 C.3     1  UNL1       -0.0151
     32  C          4.3720    8.5330  -27.1680 C.3     1  UNL1       -0.0602
     33  C          2.7670    8.1170  -25.2330 C.3     1  UNL1       -0.0511
     34  C          2.6920    8.0060  -23.7160 C.3     1  UNL1       -0.0650
     35  C         10.7850    3.6530  -22.4510 C.3     1  UNL1       -0.0177
     36  C         12.2890    3.7220  -22.7050 C.3     1  UNL1       -0.0605
     37  C         10.5040    3.4120  -20.9680 C.3     1  UNL1       -0.0605
     38  C          8.5140   11.2310  -22.1150 C.3     1  UNL1       -0.0008
     39  C          8.5780   12.7290  -21.8210 C.3     1  UNL1       -0.0588
     40  C          9.8840   10.5870  -21.9130 C.3     1  UNL1       -0.0588
     41  C         13.1250    6.1320  -25.8090 C.3     1  UNL1       -0.0008
     42  C         13.9990    6.7980  -26.8690 C.3     1  UNL1       -0.0588
     43  C         12.9690    4.6420  -26.1000 C.3     1  UNL1       -0.0588
     44  C         11.2340   11.2970  -27.0480 C.3     1  UNL1       -0.0177
     45  C         12.5260   12.1100  -27.0560 C.3     1  UNL1       -0.0605
     46  C         10.0370   12.1850  -27.3730 C.3     1  UNL1       -0.0605
     47 H           4.7164    8.6040  -23.8408 H       1  UNL1        0.0619
     48 H           9.7000    5.4275  -22.0687 H       1  UNL1        0.0619
     49 H          11.9300   10.7170  -25.1089 H       1  UNL1        0.0619
     50 H           7.6379   11.9140  -23.9067 H       1  UNL1        0.0835
     51 H           6.8124    5.0206  -25.4511 H       1  UNL1        0.0835
     52 H          11.3624    6.7973  -26.7311 H       1  UNL1        0.0835
     53 H           5.6529   10.2954  -26.6984 H       1  UNL1        0.0429
     54 H           7.3391   10.5192  -26.2990 H       1  UNL1        0.0429
     55 H           6.1414   11.6363  -25.6903 H       1  UNL1        0.0429
     56 H           8.0520    3.5223  -25.2780 H       1  UNL1        0.0429
     57 H           9.1306    2.6603  -24.2071 H       1  UNL1        0.0429
     58 H           9.7802    3.7376  -25.4197 H       1  UNL1        0.0429
     59 H           9.1582    9.5174  -26.9758 H       1  UNL1        0.0429
     60 H           9.1892    7.9685  -26.1676 H       1  UNL1        0.0429
     61 H          10.1764    8.2345  -27.5846 H       1  UNL1        0.0429
     62 H           6.2597    3.8480  -22.9005 H       1  UNL1        0.0336
     63 H           3.8452    4.8001  -24.4161 H       1  UNL1        0.0234
     64 H           4.3516    5.3699  -22.8439 H       1  UNL1        0.0234
     65 H           3.8263    3.7158  -23.0461 H       1  UNL1        0.0234
     66 H           5.3156    3.1392  -25.6654 H       1  UNL1        0.0234
     67 H           5.2686    2.0865  -24.2716 H       1  UNL1        0.0234
     68 H           6.8047    2.5994  -24.9277 H       1  UNL1        0.0234
     69 H           3.7163    9.9442  -25.7378 H       1  UNL1        0.0321
     70 H           4.6495    7.5002  -27.2032 H       1  UNL1        0.0233
     71 H           5.1977    9.1352  -27.4852 H       1  UNL1        0.0233
     72 H           3.5381    8.7006  -27.8172 H       1  UNL1        0.0233
     73 H           2.8134    7.1294  -25.6421 H       1  UNL1        0.0266
     74 H           1.8955    8.6501  -25.5509 H       1  UNL1        0.0266
     75 H           3.5488    7.4769  -23.3543 H       1  UNL1        0.0230
     76 H           1.8036    7.4770  -23.4406 H       1  UNL1        0.0230
     77 H           2.6709    8.9861  -23.2873 H       1  UNL1        0.0230
     78 H          10.3861    2.8311  -23.0081 H       1  UNL1        0.0319
     79 H          12.7064    4.5395  -22.1551 H       1  UNL1        0.0233
     80 H          12.4680    3.8666  -23.7500 H       1  UNL1        0.0233
     81 H          12.7466    2.8082  -22.3879 H       1  UNL1        0.0233
     82 H          10.8964    4.2252  -20.3939 H       1  UNL1        0.0233
     83 H          10.9712    2.4999  -20.6601 H       1  UNL1        0.0233
     84 H           9.4478    3.3421  -20.8119 H       1  UNL1        0.0233
     85 H           7.8265   10.7820  -21.4290 H       1  UNL1        0.0336
     86 H           9.2619   13.1965  -22.4982 H       1  UNL1        0.0234
     87 H           8.9114   12.8813  -20.8157 H       1  UNL1        0.0234
     88 H           7.6055   13.1583  -21.9431 H       1  UNL1        0.0234
     89 H          10.5869   11.0236  -22.5915 H       1  UNL1        0.0234
     90 H           9.8147    9.5355  -22.0988 H       1  UNL1        0.0234
     91 H          10.2103   10.7507  -20.9072 H       1  UNL1        0.0234
     92 H          13.6060    6.2405  -24.8594 H       1  UNL1        0.0336
     93 H          13.5340    6.7000  -27.8277 H       1  UNL1        0.0234
     94 H          14.9589    6.3256  -26.8881 H       1  UNL1        0.0234
     95 H          14.1166    7.8352  -26.6340 H       1  UNL1        0.0234
     96 H          12.4890    4.5120  -27.0474 H       1  UNL1        0.0234
     97 H          12.3747    4.1893  -25.3340 H       1  UNL1        0.0234
     98 H          13.9339    4.1801  -26.1226 H       1  UNL1        0.0234
     99 H          11.3071   10.5422  -27.8029 H       1  UNL1        0.0319
    100 H          12.4727   12.8717  -26.3064 H       1  UNL1        0.0233
    101 H          12.6563   12.5632  -28.0165 H       1  UNL1        0.0233
    102 H          13.3546   11.4649  -26.8507 H       1  UNL1        0.0233
    103 H           9.9463   12.9479  -26.6283 H       1  UNL1        0.0233
    104 H           9.1464   11.5922  -27.3866 H       1  UNL1        0.0233
    105 H          10.1788   12.6378  -28.3321 H       1  UNL1        0.0233
@<TRIPOS>BOND
     1     1    20    1
     2     1    17    1
     3     2    23    1
     4     2    16    1
     5     3    18    1
     6     3    24    1
     7     4    19    2
     8     5    20    2
     9     6    21    2
    10     7    22    2
    11     8    23    2
    12     9    24    2
    13    10    25    1
    14    10    13    1
    15    10    19   am
    16    11    26    1
    17    11    21   am
    18    11    14    1
    19    12    27    1
    20    12    15    1
    21    12    22   am
    22    13    31    1
    23    13    20    1
    24    14    24    1
    25    14    35    1
    26    15    44    1
    27    15    23    1
    28    16    19    1
    29    16    38    1
    30    17    28    1
    31    17    21    1
    32    18    41    1
    33    18    22    1
    34    28    30    1
    35    28    29    1
    36    31    32    1
    37    31    33    1
    38    33    34    1
    39    35    36    1
    40    35    37    1
    41    38    40    1
    42    38    39    1
    43    41    42    1
    44    41    43    1
    45    44    46    1
    46    44    45    1
    47    13    47    1
    48    14    48    1
    49    15    49    1
    50    16    50    1
    51    17    51    1
    52    18    52    1
    53    25    53    1
    54    25    54    1
    55    25    55    1
    56    26    56    1
    57    26    57    1
    58    26    58    1
    59    27    59    1
    60    27    60    1
    61    27    61    1
    62    28    62    1
    63    29    63    1
    64    29    64    1
    65    29    65    1
    66    30    66    1
    67    30    67    1
    68    30    68    1
    69    31    69    1
    70    32    70    1
    71    32    71    1
    72    32    72    1
    73    33    73    1
    74    33    74    1
    75    34    75    1
    76    34    76    1
    77    34    77    1
    78    35    78    1
    79    36    79    1
    80    36    80    1
    81    36    81    1
    82    37    82    1
    83    37    83    1
    84    37    84    1
    85    38    85    1
    86    39    86    1
    87    39    87    1
    88    39    88    1
    89    40    89    1
    90    40    90    1
    91    40    91    1
    92    41    92    1
    93    42    93    1
    94    42    94    1
    95    42    95    1
    96    43    96    1
    97    43    97    1
    98    43    98    1
    99    44    99    1
   100    45   100    1
   101    45   101    1
   102    45   102    1
   103    46   103    1
   104    46   104    1
   105    46   105    1
