Results/Site1/HOLO/IBP/IBP-Site1_1.pdb
 OpenBabel08312517003D

 33 33  0  0  1  0  0  0  0  0999 V2000
    4.1810  -11.4640    9.4950 C   0  0  0  0  0  0  0  0  0  0  0  0
    4.9420  -12.3160    8.7160 C   0  0  0  0  0  0  0  0  0  0  0  0
    5.1230  -12.0470    7.3740 C   0  0  0  0  0  0  0  0  0  0  0  0
    4.5420  -10.9280    6.8090 C   0  0  0  0  0  0  0  0  0  0  0  0
    3.7860  -10.0730    7.5880 C   0  0  0  0  0  0  0  0  0  0  0  0
    3.6010  -10.3450    8.9300 C   0  0  0  0  0  0  0  0  0  0  0  0
    3.9820  -11.7570   10.9600 C   0  0  2  0  0  0  0  0  0  0  0  0
    2.4910  -11.7020   11.2940 C   0  0  0  0  0  0  0  0  0  0  0  0
    4.7200  -10.7330   11.7820 C   0  0  0  0  0  0  0  0  0  0  0  0
    4.1360  -10.1130   12.6390 O   0  0  0  0  0  0  0  0  0  0  0  0
    6.0250  -10.5090   11.5620 O   0  0  0  0  0  0  0  0  0  0  0  0
    6.4130   -9.6520   11.7880 H   0  0  0  0  0  0  0  0  0  0  0  0
    4.7400  -10.6350    5.3430 C   0  0  0  0  0  0  0  0  0  0  0  0
    4.0670  -11.7260    4.5100 C   0  0  0  0  0  0  0  0  0  0  0  0
    2.6720  -11.2600    4.0890 C   0  0  0  0  0  0  0  0  0  0  0  0
    4.9070  -12.0080    3.2640 C   0  0  0  0  0  0  0  0  0  0  0  0
    5.3746  -13.1528    9.1376 H   0  0  0  0  0  0  0  0  0  0  0  0
    5.6924  -12.6819    6.7928 H   0  0  0  0  0  0  0  0  0  0  0  0
    3.3600   -9.2321    7.1679 H   0  0  0  0  0  0  0  0  0  0  0  0
    3.0292   -9.7117    9.5105 H   0  0  0  0  0  0  0  0  0  0  0  0
    4.3606  -12.7327   11.1828 H   0  0  0  0  0  0  0  0  0  0  0  0
    2.1114  -10.7266   11.0715 H   0  0  0  0  0  0  0  0  0  0  0  0
    2.3505  -11.9107   12.3340 H   0  0  0  0  0  0  0  0  0  0  0  0
    1.9676  -12.4301   10.7102 H   0  0  0  0  0  0  0  0  0  0  0  0
    5.7867  -10.6121    5.1220 H   0  0  0  0  0  0  0  0  0  0  0  0
    4.3049   -9.6864    5.1069 H   0  0  0  0  0  0  0  0  0  0  0  0
    3.9837  -12.6188    5.0938 H   0  0  0  0  0  0  0  0  0  0  0  0
    2.7553  -10.3672    3.5052 H   0  0  0  0  0  0  0  0  0  0  0  0
    2.0837  -11.0625    4.9607 H   0  0  0  0  0  0  0  0  0  0  0  0
    2.2013  -12.0243    3.5067 H   0  0  0  0  0  0  0  0  0  0  0  0
    4.9902  -11.1151    2.6803 H   0  0  0  0  0  0  0  0  0  0  0  0
    4.4359  -12.7722    2.6817 H   0  0  0  0  0  0  0  0  0  0  0  0
    5.8828  -12.3341    3.5580 H   0  0  0  0  0  0  0  0  0  0  0  0
  1  2  2  0  0  0  0
  1  6  1  0  0  0  0
  1  7  1  0  0  0  0
  2  3  1  0  0  0  0
  2 17  1  0  0  0  0
  3  4  2  0  0  0  0
  3 18  1  0  0  0  0
  4 13  1  0  0  0  0
  4  5  1  0  0  0  0
  5  6  2  0  0  0  0
  5 19  1  0  0  0  0
  6 20  1  0  0  0  0
  7  8  1  0  0  0  0
  7  9  1  0  0  0  0
  7 21  1  1  0  0  0
  8 22  1  0  0  0  0
  8 23  1  0  0  0  0
  8 24  1  0  0  0  0
  9 11  1  0  0  0  0
  9 10  2  0  0  0  0
 11 12  1  0  0  0  0
 13 14  1  0  0  0  0
 13 25  1  0  0  0  0
 13 26  1  0  0  0  0
 14 16  1  0  0  0  0
 14 15  1  0  0  0  0
 14 27  1  0  0  0  0
 15 28  1  0  0  0  0
 15 29  1  0  0  0  0
 15 30  1  0  0  0  0
 16 31  1  0  0  0  0
 16 32  1  0  0  0  0
 16 33  1  0  0  0  0
M  END
