Results/Site2/HOLO/ENA/ENA-Site2_1.pdb
 OpenBabel08312517003D

111111  0  0  1  0  0  0  0  0999 V2000
   11.4280   -0.1340  -23.1420 O   0  0  0  0  0  0  0  0  0  0  0  0
    6.8210   -1.3490  -24.8940 O   0  0  0  0  0  0  0  0  0  0  0  0
    8.4940    2.6300  -22.6960 O   0  0  0  0  0  0  0  0  0  0  0  0
   10.3350   -1.7560  -24.8440 O   0  0  0  0  0  0  0  0  0  0  0  0
   10.2540    4.5120  -20.4060 O   0  0  0  0  0  0  0  0  0  0  0  0
    8.2850    0.8040  -25.2940 O   0  0  0  0  0  0  0  0  0  0  0  0
   12.2550    0.6250  -21.1270 O   0  0  0  0  0  0  0  0  0  0  0  0
    7.0530   -1.3240  -22.5970 O   0  0  0  0  0  0  0  0  0  0  0  0
    8.6720    4.8950  -23.0640 O   0  0  0  0  0  0  0  0  0  0  0  0
    9.3080   -2.9140  -23.1160 N   0  0  0  0  0  0  0  0  0  0  0  0
   11.5230    3.2120  -21.8470 N   0  0  0  0  0  0  0  0  0  0  0  0
    6.6840    2.3390  -24.6120 N   0  0  0  0  0  0  0  0  0  0  0  0
    8.0820   -3.0930  -23.9190 C   0  0  2  0  0  0  0  0  0  0  0  0
   11.6310    2.1830  -22.9030 C   0  0  2  0  0  0  0  0  0  0  0  0
    7.6280    3.4740  -24.7400 C   0  0  2  0  0  0  0  0  0  0  0  0
   11.3230   -1.4990  -22.6840 C   0  0  1  0  0  0  0  0  0  0  0  0
    6.1070   -0.0970  -24.8720 C   0  0  1  0  0  0  0  0  0  0  0  0
    9.0990    2.6510  -21.4000 C   0  0  1  0  0  0  0  0  0  0  0  0
   10.3030   -2.0840  -23.6520 C   0  0  0  0  0  0  0  0  0  0  0  0
   10.3330    3.5540  -21.1840 C   0  0  0  0  0  0  0  0  0  0  0  0
    7.1250    1.0480  -24.9420 C   0  0  0  0  0  0  0  0  0  0  0  0
   11.8260    0.8220  -22.2540 C   0  0  0  0  0  0  0  0  0  0  0  0
    7.2630   -1.8290  -23.6920 C   0  0  0  0  0  0  0  0  0  0  0  0
    8.2860    3.7810  -23.3950 C   0  0  0  0  0  0  0  0  0  0  0  0
    9.3620   -3.4820  -21.7670 C   0  0  0  0  0  0  0  0  0  0  0  0
   12.7440    3.9220  -21.4670 C   0  0  0  0  0  0  0  0  0  0  0  0
    5.3580    2.6510  -24.0700 C   0  0  0  0  0  0  0  0  0  0  0  0
   12.6610   -2.2030  -22.8220 C   0  0  0  0  0  0  0  0  0  0  0  0
   13.2550   -1.9660  -24.2090 C   0  0  0  0  0  0  0  0  0  0  0  0
   12.5120   -3.6990  -22.5520 C   0  0  0  0  0  0  0  0  0  0  0  0
   12.7270    2.4320  -23.9380 C   0  0  1  0  0  0  0  0  0  0  0  0
   13.8920    1.4680  -23.6990 C   0  0  0  0  0  0  0  0  0  0  0  0
   12.2140    2.2840  -25.3810 C   0  0  0  0  0  0  0  0  0  0  0  0
   11.1650    3.3180  -25.7630 C   0  0  0  0  0  0  0  0  0  0  0  0
    7.2360   -4.3190  -23.6050 C   0  0  1  0  0  0  0  0  0  0  0  0
    5.8050   -4.1030  -24.1060 C   0  0  0  0  0  0  0  0  0  0  0  0
    7.8130   -5.6060  -24.2200 C   0  0  0  0  0  0  0  0  0  0  0  0
    7.2090   -6.8790  -23.6430 C   0  0  0  0  0  0  0  0  0  0  0  0
    7.9980    2.9560  -20.3820 C   0  0  0  0  0  0  0  0  0  0  0  0
    6.6600    2.3950  -20.8550 C   0  0  0  0  0  0  0  0  0  0  0  0
    8.3640    2.3900  -19.0110 C   0  0  0  0  0  0  0  0  0  0  0  0
    5.2080   -0.0740  -26.1000 C   0  0  0  0  0  0  0  0  0  0  0  0
    4.3470   -1.3350  -26.1620 C   0  0  0  0  0  0  0  0  0  0  0  0
    6.0380    0.0690  -27.3750 C   0  0  0  0  0  0  0  0  0  0  0  0
    6.9960    4.7230  -25.3520 C   0  0  1  0  0  0  0  0  0  0  0  0
    6.5520    5.6830  -24.2430 C   0  0  0  0  0  0  0  0  0  0  0  0
    7.9460    5.4530  -26.3200 C   0  0  0  0  0  0  0  0  0  0  0  0
    7.7370    6.9600  -26.3530 C   0  0  0  0  0  0  0  0  0  0  0  0
    8.3789   -3.2575  -24.9337 H   0  0  0  0  0  0  0  0  0  0  0  0
   10.7143    2.2259  -23.4533 H   0  0  0  0  0  0  0  0  0  0  0  0
    8.3851    3.1659  -25.4305 H   0  0  0  0  0  0  0  0  0  0  0  0
   11.0429   -1.5953  -21.6558 H   0  0  0  0  0  0  0  0  0  0  0  0
    5.5237    0.0127  -23.9817 H   0  0  0  0  0  0  0  0  0  0  0  0
    9.5320    1.6808  -21.2728 H   0  0  0  0  0  0  0  0  0  0  0  0
    8.4895   -4.0771  -21.5954 H   0  0  0  0  0  0  0  0  0  0  0  0
    9.4010   -2.6905  -21.0480 H   0  0  0  0  0  0  0  0  0  0  0  0
   10.2350   -4.0933  -21.6721 H   0  0  0  0  0  0  0  0  0  0  0  0
   13.5639    3.5592  -22.0509 H   0  0  0  0  0  0  0  0  0  0  0  0
   12.9445    3.7565  -20.4291 H   0  0  0  0  0  0  0  0  0  0  0  0
   12.6168    4.9697  -21.6430 H   0  0  0  0  0  0  0  0  0  0  0  0
    4.7713    1.7573  -24.0262 H   0  0  0  0  0  0  0  0  0  0  0  0
    4.8733    3.3653  -24.7023 H   0  0  0  0  0  0  0  0  0  0  0  0
    5.4617    3.0582  -23.0859 H   0  0  0  0  0  0  0  0  0  0  0  0
   13.3308   -1.7937  -22.0949 H   0  0  0  0  0  0  0  0  0  0  0  0
   12.5986   -2.3690  -24.9517 H   0  0  0  0  0  0  0  0  0  0  0  0
   14.2080   -2.4479  -24.2760 H   0  0  0  0  0  0  0  0  0  0  0  0
   13.3745   -0.9151  -24.3710 H   0  0  0  0  0  0  0  0  0  0  0  0
   11.8444   -4.1264  -23.2707 H   0  0  0  0  0  0  0  0  0  0  0  0
   12.1185   -3.8464  -21.5679 H   0  0  0  0  0  0  0  0  0  0  0  0
   13.4687   -4.1722  -22.6282 H   0  0  0  0  0  0  0  0  0  0  0  0
   13.0566    3.4430  -23.8193 H   0  0  0  0  0  0  0  0  0  0  0  0
   13.5520    0.4607  -23.8200 H   0  0  0  0  0  0  0  0  0  0  0  0
   14.2670    1.6010  -22.7057 H   0  0  0  0  0  0  0  0  0  0  0  0
   14.6713    1.6685  -24.4042 H   0  0  0  0  0  0  0  0  0  0  0  0
   11.7842    1.3101  -25.4891 H   0  0  0  0  0  0  0  0  0  0  0  0
   13.0523    2.4328  -26.0291 H   0  0  0  0  0  0  0  0  0  0  0  0
   10.3059    3.2031  -25.1356 H   0  0  0  0  0  0  0  0  0  0  0  0
   10.8815    3.1776  -26.7852 H   0  0  0  0  0  0  0  0  0  0  0  0
   11.5700    4.3003  -25.6369 H   0  0  0  0  0  0  0  0  0  0  0  0
    7.2402   -4.4442  -22.5424 H   0  0  0  0  0  0  0  0  0  0  0  0
    5.8141   -3.9792  -25.1688 H   0  0  0  0  0  0  0  0  0  0  0  0
    5.3953   -3.2269  -23.6483 H   0  0  0  0  0  0  0  0  0  0  0  0
    5.2058   -4.9520  -23.8509 H   0  0  0  0  0  0  0  0  0  0  0  0
    8.8683   -5.6219  -24.0439 H   0  0  0  0  0  0  0  0  0  0  0  0
    7.5757   -5.5900  -25.2632 H   0  0  0  0  0  0  0  0  0  0  0  0
    7.4247   -6.9335  -22.5964 H   0  0  0  0  0  0  0  0  0  0  0  0
    7.6288   -7.7294  -24.1385 H   0  0  0  0  0  0  0  0  0  0  0  0
    6.1490   -6.8687  -23.7886 H   0  0  0  0  0  0  0  0  0  0  0  0
    7.9048    4.0183  -20.2938 H   0  0  0  0  0  0  0  0  0  0  0  0
    6.7325    1.3317  -20.9497 H   0  0  0  0  0  0  0  0  0  0  0  0
    6.4099    2.8213  -21.8040 H   0  0  0  0  0  0  0  0  0  0  0  0
    5.8994    2.6386  -20.1430 H   0  0  0  0  0  0  0  0  0  0  0  0
    8.4619    1.3266  -19.0787 H   0  0  0  0  0  0  0  0  0  0  0  0
    7.5951    2.6333  -18.3078 H   0  0  0  0  0  0  0  0  0  0  0  0
    9.2913    2.8136  -18.6862 H   0  0  0  0  0  0  0  0  0  0  0  0
    4.5602    0.7741  -26.0226 H   0  0  0  0  0  0  0  0  0  0  0  0
    4.9790   -2.1949  -26.2398 H   0  0  0  0  0  0  0  0  0  0  0  0
    3.7042   -1.2864  -27.0160 H   0  0  0  0  0  0  0  0  0  0  0  0
    3.7549   -1.4067  -25.2736 H   0  0  0  0  0  0  0  0  0  0  0  0
    6.6934   -0.7714  -27.4701 H   0  0  0  0  0  0  0  0  0  0  0  0
    6.6159    0.9681  -27.3254 H   0  0  0  0  0  0  0  0  0  0  0  0
    5.3859    0.1104  -28.2223 H   0  0  0  0  0  0  0  0  0  0  0  0
    6.1484    4.3994  -25.9193 H   0  0  0  0  0  0  0  0  0  0  0  0
    7.4065    6.0001  -23.6825 H   0  0  0  0  0  0  0  0  0  0  0  0
    5.8644    5.1834  -23.5930 H   0  0  0  0  0  0  0  0  0  0  0  0
    6.0751    6.5357  -24.6792 H   0  0  0  0  0  0  0  0  0  0  0  0
    7.7877    5.0673  -27.3054 H   0  0  0  0  0  0  0  0  0  0  0  0
    8.9433    5.2807  -25.9727 H   0  0  0  0  0  0  0  0  0  0  0  0
    6.7468    7.1753  -26.6967 H   0  0  0  0  0  0  0  0  0  0  0  0
    8.4493    7.4044  -27.0163 H   0  0  0  0  0  0  0  0  0  0  0  0
    7.8679    7.3599  -25.3692 H   0  0  0  0  0  0  0  0  0  0  0  0
  1 16  1  0  0  0  0
  1 22  1  0  0  0  0
  2 17  1  0  0  0  0
  2 23  1  0  0  0  0
  3 24  1  0  0  0  0
  3 18  1  0  0  0  0
  4 19  2  0  0  0  0
  5 20  2  0  0  0  0
  6 21  2  0  0  0  0
  7 22  2  0  0  0  0
  8 23  2  0  0  0  0
  9 24  2  0  0  0  0
 10 13  1  0  0  0  0
 10 19  1  0  0  0  0
 10 25  1  0  0  0  0
 11 14  1  0  0  0  0
 11 26  1  0  0  0  0
 11 20  1  0  0  0  0
 12 21  1  0  0  0  0
 12 15  1  0  0  0  0
 12 27  1  0  0  0  0
 13 23  1  0  0  0  0
 13 35  1  0  0  0  0
 13 49  1  6  0  0  0
 14 31  1  0  0  0  0
 14 22  1  0  0  0  0
 14 50  1  6  0  0  0
 15 45  1  0  0  0  0
 15 24  1  0  0  0  0
 15 51  1  6  0  0  0
 16 19  1  0  0  0  0
 16 28  1  0  0  0  0
 16 52  1  1  0  0  0
 17 42  1  0  0  0  0
 17 21  1  0  0  0  0
 17 53  1  1  0  0  0
 18 20  1  0  0  0  0
 18 39  1  0  0  0  0
 18 54  1  1  0  0  0
 25 55  1  0  0  0  0
 25 56  1  0  0  0  0
 25 57  1  0  0  0  0
 26 58  1  0  0  0  0
 26 59  1  0  0  0  0
 26 60  1  0  0  0  0
 27 61  1  0  0  0  0
 27 62  1  0  0  0  0
 27 63  1  0  0  0  0
 28 29  1  0  0  0  0
 28 30  1  0  0  0  0
 28 64  1  0  0  0  0
 29 65  1  0  0  0  0
 29 66  1  0  0  0  0
 29 67  1  0  0  0  0
 30 68  1  0  0  0  0
 30 69  1  0  0  0  0
 30 70  1  0  0  0  0
 31 33  1  0  0  0  0
 31 32  1  0  0  0  0
 31 71  1  1  0  0  0
 32 72  1  0  0  0  0
 32 73  1  0  0  0  0
 32 74  1  0  0  0  0
 33 34  1  0  0  0  0
 33 75  1  0  0  0  0
 33 76  1  0  0  0  0
 34 77  1  0  0  0  0
 34 78  1  0  0  0  0
 34 79  1  0  0  0  0
 35 37  1  0  0  0  0
 35 36  1  0  0  0  0
 35 80  1  1  0  0  0
 36 81  1  0  0  0  0
 36 82  1  0  0  0  0
 36 83  1  0  0  0  0
 37 38  1  0  0  0  0
 37 84  1  0  0  0  0
 37 85  1  0  0  0  0
 38 86  1  0  0  0  0
 38 87  1  0  0  0  0
 38 88  1  0  0  0  0
 39 40  1  0  0  0  0
 39 41  1  0  0  0  0
 39 89  1  0  0  0  0
 40 90  1  0  0  0  0
 40 91  1  0  0  0  0
 40 92  1  0  0  0  0
 41 93  1  0  0  0  0
 41 94  1  0  0  0  0
 41 95  1  0  0  0  0
 42 44  1  0  0  0  0
 42 43  1  0  0  0  0
 42 96  1  0  0  0  0
 43 97  1  0  0  0  0
 43 98  1  0  0  0  0
 43 99  1  0  0  0  0
 44100  1  0  0  0  0
 44101  1  0  0  0  0
 44102  1  0  0  0  0
 45 47  1  0  0  0  0
 45 46  1  0  0  0  0
 45103  1  6  0  0  0
 46104  1  0  0  0  0
 46105  1  0  0  0  0
 46106  1  0  0  0  0
 47 48  1  0  0  0  0
 47107  1  0  0  0  0
 47108  1  0  0  0  0
 48109  1  0  0  0  0
 48110  1  0  0  0  0
 48111  1  0  0  0  0
M  END
