@<TRIPOS>MOLECULE
Results/Site2/HOLO/ENA/ENA-Site2_1.pdb
  111   111     1     0     0
SMALL
bcc


@<TRIPOS>ATOM
      1 O           11.4280    -0.1340   -23.1420 os         1 UNL      -0.420900
      2 O1           6.8210    -1.3490   -24.8940 os         1 UNL      -0.420900
      3 O2           8.4940     2.6300   -22.6960 os         1 UNL      -0.420900
      4 O3          10.3350    -1.7560   -24.8440 o          1 UNL      -0.572767
      5 O4          10.2540     4.5120   -20.4060 o          1 UNL      -0.572767
      6 O5           8.2850     0.8040   -25.2940 o          1 UNL      -0.572767
      7 O6          12.2550     0.6250   -21.1270 o          1 UNL      -0.533333
      8 O7           7.0530    -1.3240   -22.5970 o          1 UNL      -0.533333
      9 O8           8.6720     4.8950   -23.0640 o          1 UNL      -0.533333
     10 N            9.3080    -2.9140   -23.1160 n          1 UNL      -0.468467
     11 N1          11.5230     3.2120   -21.8470 n          1 UNL      -0.468467
     12 N2           6.6840     2.3390   -24.6120 n          1 UNL      -0.468467
     13 C            8.0820    -3.0930   -23.9190 c3         1 UNL       0.067033
     14 C1          11.6310     2.1830   -22.9030 c3         1 UNL       0.067033
     15 C2           7.6280     3.4740   -24.7400 c3         1 UNL       0.067033
     16 C3          11.3230    -1.4990   -22.6840 c3         1 UNL       0.091433
     17 C4           6.1070    -0.0970   -24.8720 c3         1 UNL       0.091433
     18 C5           9.0990     2.6510   -21.4000 c3         1 UNL       0.091433
     19 C6          10.3030    -2.0840   -23.6520 c          1 UNL       0.655100
     20 C7          10.3330     3.5540   -21.1840 c          1 UNL       0.655100
     21 C8           7.1250     1.0480   -24.9420 c          1 UNL       0.655100
     22 C9          11.8260     0.8220   -22.2540 c          1 UNL       0.616100
     23 C10          7.2630    -1.8290   -23.6920 c          1 UNL       0.616100
     24 C11          8.2860     3.7810   -23.3950 c          1 UNL       0.616100
     25 C12          9.3620    -3.4820   -21.7670 c3         1 UNL       0.065633
     26 C13         12.7440     3.9220   -21.4670 c3         1 UNL       0.065633
     27 C14          5.3580     2.6510   -24.0700 c3         1 UNL       0.065633
     28 C15         12.6610    -2.2030   -22.8220 c3         1 UNL      -0.070700
     29 C16         13.2550    -1.9660   -24.2090 c3         1 UNL      -0.095933
     30 C17         12.5120    -3.6990   -22.5520 c3         1 UNL      -0.095933
     31 C18         12.7270     2.4320   -23.9380 c3         1 UNL      -0.064367
     32 C19         13.8920     1.4680   -23.6990 c3         1 UNL      -0.104767
     33 C20         12.2140     2.2840   -25.3810 c3         1 UNL      -0.084067
     34 C21         11.1650     3.3180   -25.7630 c3         1 UNL      -0.094767
     35 C22          7.2360    -4.3190   -23.6050 c3         1 UNL      -0.064367
     36 C23          5.8050    -4.1030   -24.1060 c3         1 UNL      -0.104767
     37 C24          7.8130    -5.6060   -24.2200 c3         1 UNL      -0.084067
     38 C25          7.2090    -6.8790   -23.6430 c3         1 UNL      -0.094767
     39 C26          7.9980     2.9560   -20.3820 c3         1 UNL      -0.070700
     40 C27          6.6600     2.3950   -20.8550 c3         1 UNL      -0.095933
     41 C28          8.3640     2.3900   -19.0110 c3         1 UNL      -0.095933
     42 C29          5.2080    -0.0740   -26.1000 c3         1 UNL      -0.070700
     43 C30          4.3470    -1.3350   -26.1620 c3         1 UNL      -0.095933
     44 C31          6.0380     0.0690   -27.3750 c3         1 UNL      -0.095933
     45 C32          6.9960     4.7230   -25.3520 c3         1 UNL      -0.064367
     46 C33          6.5520     5.6830   -24.2430 c3         1 UNL      -0.104767
     47 C34          7.9460     5.4530   -26.3200 c3         1 UNL      -0.084067
     48 C35          7.7370     6.9600   -26.3530 c3         1 UNL      -0.094767
     49 H            8.3790    -3.2570   -24.9340 h1         1 UNL       0.121033
     50 H1          10.7140     2.2260   -23.4530 h1         1 UNL       0.121033
     51 H2           8.3850     3.1660   -25.4300 h1         1 UNL       0.121033
     52 H3          11.0430    -1.5950   -21.6560 h1         1 UNL       0.087367
     53 H4           5.5240     0.0130   -23.9820 h1         1 UNL       0.087367
     54 H5           9.5320     1.6810   -21.2730 h1         1 UNL       0.087367
     55 H6           8.4890    -4.0770   -21.5950 h1         1 UNL       0.050922
     56 H7           9.4010    -2.6910   -21.0480 h1         1 UNL       0.050922
     57 H8          10.2350    -4.0930   -21.6720 h1         1 UNL       0.050922
     58 H9          13.5640     3.5590   -22.0510 h1         1 UNL       0.050922
     59 H10         12.9440     3.7560   -20.4290 h1         1 UNL       0.050922
     60 H11         12.6170     4.9700   -21.6430 h1         1 UNL       0.050922
     61 H12          4.7710     1.7570   -24.0260 h1         1 UNL       0.050922
     62 H13          4.8730     3.3650   -24.7020 h1         1 UNL       0.050922
     63 H14          5.4620     3.0580   -23.0860 h1         1 UNL       0.050922
     64 H15         13.3310    -1.7940   -22.0950 hc         1 UNL       0.071367
     65 H16         12.5990    -2.3690   -24.9520 hc         1 UNL       0.043811
     66 H17         14.2080    -2.4480   -24.2760 hc         1 UNL       0.043811
     67 H18         13.3740    -0.9150   -24.3710 hc         1 UNL       0.043811
     68 H19         11.8440    -4.1260   -23.2710 hc         1 UNL       0.043811
     69 H20         12.1180    -3.8460   -21.5680 hc         1 UNL       0.043811
     70 H21         13.4690    -4.1720   -22.6280 hc         1 UNL       0.043811
     71 H22         13.0570     3.4430   -23.8190 hc         1 UNL       0.064700
     72 H23         13.5520     0.4610   -23.8200 hc         1 UNL       0.044922
     73 H24         14.2670     1.6010   -22.7060 hc         1 UNL       0.044922
     74 H25         14.6710     1.6690   -24.4040 hc         1 UNL       0.044922
     75 H26         11.7840     1.3100   -25.4890 hc         1 UNL       0.052700
     76 H27         13.0520     2.4330   -26.0290 hc         1 UNL       0.052700
     77 H28         10.3060     3.2030   -25.1360 hc         1 UNL       0.036589
     78 H29         10.8820     3.1780   -26.7850 hc         1 UNL       0.036589
     79 H30         11.5700     4.3000   -25.6370 hc         1 UNL       0.036589
     80 H31          7.2400    -4.4440   -22.5420 hc         1 UNL       0.064700
     81 H32          5.8140    -3.9790   -25.1690 hc         1 UNL       0.044922
     82 H33          5.3950    -3.2270   -23.6480 hc         1 UNL       0.044922
     83 H34          5.2060    -4.9520   -23.8510 hc         1 UNL       0.044922
     84 H35          8.8680    -5.6220   -24.0440 hc         1 UNL       0.052700
     85 H36          7.5760    -5.5900   -25.2630 hc         1 UNL       0.052700
     86 H37          7.4250    -6.9340   -22.5960 hc         1 UNL       0.036589
     87 H38          7.6290    -7.7290   -24.1390 hc         1 UNL       0.036589
     88 H39          6.1490    -6.8690   -23.7890 hc         1 UNL       0.036589
     89 H40          7.9050     4.0180   -20.2940 hc         1 UNL       0.071367
     90 H41          6.7320     1.3320   -20.9500 hc         1 UNL       0.043811
     91 H42          6.4100     2.8210   -21.8040 hc         1 UNL       0.043811
     92 H43          5.8990     2.6390   -20.1430 hc         1 UNL       0.043811
     93 H44          8.4620     1.3270   -19.0790 hc         1 UNL       0.043811
     94 H45          7.5950     2.6330   -18.3080 hc         1 UNL       0.043811
     95 H46          9.2910     2.8140   -18.6860 hc         1 UNL       0.043811
     96 H47          4.5600     0.7740   -26.0230 hc         1 UNL       0.071367
     97 H48          4.9790    -2.1950   -26.2400 hc         1 UNL       0.043811
     98 H49          3.7040    -1.2860   -27.0160 hc         1 UNL       0.043811
     99 H50          3.7550    -1.4070   -25.2740 hc         1 UNL       0.043811
    100 H51          6.6930    -0.7710   -27.4700 hc         1 UNL       0.043811
    101 H52          6.6160     0.9680   -27.3250 hc         1 UNL       0.043811
    102 H53          5.3860     0.1100   -28.2220 hc         1 UNL       0.043811
    103 H54          6.1480     4.3990   -25.9190 hc         1 UNL       0.064700
    104 H55          7.4070     6.0000   -23.6830 hc         1 UNL       0.044922
    105 H56          5.8640     5.1830   -23.5930 hc         1 UNL       0.044922
    106 H57          6.0750     6.5360   -24.6790 hc         1 UNL       0.044922
    107 H58          7.7880     5.0670   -27.3050 hc         1 UNL       0.052700
    108 H59          8.9430     5.2810   -25.9730 hc         1 UNL       0.052700
    109 H60          6.7470     7.1750   -26.6970 hc         1 UNL       0.036589
    110 H61          8.4490     7.4040   -27.0160 hc         1 UNL       0.036589
    111 H62          7.8680     7.3600   -25.3690 hc         1 UNL       0.036589
@<TRIPOS>BOND
     1     1    16 1   
     2     1    22 1   
     3     2    17 1   
     4     2    23 1   
     5     3    24 1   
     6     3    18 1   
     7     4    19 2   
     8     5    20 2   
     9     6    21 2   
    10     7    22 2   
    11     8    23 2   
    12     9    24 2   
    13    10    13 1   
    14    10    19 1   
    15    10    25 1   
    16    11    14 1   
    17    11    26 1   
    18    11    20 1   
    19    12    21 1   
    20    12    15 1   
    21    12    27 1   
    22    13    23 1   
    23    13    35 1   
    24    14    31 1   
    25    14    22 1   
    26    15    45 1   
    27    15    24 1   
    28    16    19 1   
    29    16    28 1   
    30    17    42 1   
    31    17    21 1   
    32    18    20 1   
    33    18    39 1   
    34    28    29 1   
    35    28    30 1   
    36    31    33 1   
    37    31    32 1   
    38    33    34 1   
    39    35    37 1   
    40    35    36 1   
    41    37    38 1   
    42    39    40 1   
    43    39    41 1   
    44    42    44 1   
    45    42    43 1   
    46    45    47 1   
    47    45    46 1   
    48    47    48 1   
    49    13    49 1   
    50    14    50 1   
    51    15    51 1   
    52    16    52 1   
    53    17    53 1   
    54    18    54 1   
    55    25    55 1   
    56    25    56 1   
    57    25    57 1   
    58    26    58 1   
    59    26    59 1   
    60    26    60 1   
    61    27    61 1   
    62    27    62 1   
    63    27    63 1   
    64    28    64 1   
    65    29    65 1   
    66    29    66 1   
    67    29    67 1   
    68    30    68 1   
    69    30    69 1   
    70    30    70 1   
    71    31    71 1   
    72    32    72 1   
    73    32    73 1   
    74    32    74 1   
    75    33    75 1   
    76    33    76 1   
    77    34    77 1   
    78    34    78 1   
    79    34    79 1   
    80    35    80 1   
    81    36    81 1   
    82    36    82 1   
    83    36    83 1   
    84    37    84 1   
    85    37    85 1   
    86    38    86 1   
    87    38    87 1   
    88    38    88 1   
    89    39    89 1   
    90    40    90 1   
    91    40    91 1   
    92    40    92 1   
    93    41    93 1   
    94    41    94 1   
    95    41    95 1   
    96    42    96 1   
    97    43    97 1   
    98    43    98 1   
    99    43    99 1   
   100    44   100 1   
   101    44   101 1   
   102    44   102 1   
   103    45   103 1   
   104    46   104 1   
   105    46   105 1   
   106    46   106 1   
   107    47   107 1   
   108    47   108 1   
   109    48   109 1   
   110    48   110 1   
   111    48   111 1   
@<TRIPOS>SUBSTRUCTURE
     1 UNL         1 TEMP              0 ****  ****    0 ROOT
