@<TRIPOS>MOLECULE
Results/Site1/APO/RWF/RWF-Site1_1.pdb
 39 41 0 0 0
SMALL
GASTEIGER

@<TRIPOS>ATOM
      1  C         34.6660   32.2400   34.5240 C.ar    1  UNL1        0.0593
      2  C         34.0470   31.7110   37.1550 C.ar    1  UNL1        0.3446
      3  C         35.2420   32.3910   36.8830 C.ar    1  UNL1        0.0866
      4  C         35.5840   32.6690   35.5890 C.ar    1  UNL1        0.1381
      5  C         34.9530   32.4890   33.1800 C.ar    1  UNL1       -0.0475
      6  C         34.0720   32.0730   32.2070 C.ar    1  UNL1       -0.0609
      7  C         32.9050   31.4100   32.5560 C.ar    1  UNL1       -0.0582
      8  C         32.6100   31.1570   33.8790 C.ar    1  UNL1       -0.0185
      9  C         33.4850   31.5680   34.8760 C.ar    1  UNL1        0.1426
     10  O         33.2120   31.3270   36.1760 O.2     1  UNL1       -0.4217
     11  O         33.7520   31.4700   38.3120 O.2     1  UNL1       -0.2447
     12  O         36.7340   33.3200   35.2960 O.3     1  UNL1       -0.5055
     13  H         37.1420   33.5580   36.1390 H       1  UNL1        0.2922
     14  C         36.1490   32.8100   38.0110 C.3     1  UNL1        0.0262
     15  C         37.1040   31.6640   38.3490 C.3     1  UNL1        0.0167
     16  C         38.4890   32.0050   37.8640 C.2     1  UNL1        0.1312
     17  C         39.4290   32.7800   38.7500 C.3     1  UNL1       -0.0060
     18  O         38.8460   31.6570   36.7650 O.2     1  UNL1       -0.2977
     19  C         35.3200   33.1470   39.2220 C.ar    1  UNL1       -0.0392
     20  C         35.0040   32.1620   40.1400 C.ar    1  UNL1       -0.0580
     21  C         34.2440   32.4710   41.2520 C.ar    1  UNL1       -0.0615
     22  C         33.8000   33.7640   41.4480 C.ar    1  UNL1       -0.0617
     23  C         34.1150   34.7490   40.5310 C.ar    1  UNL1       -0.0615
     24  C         34.8800   34.4410   39.4210 C.ar    1  UNL1       -0.0580
     25 H          35.8207   32.9821   32.9176 H       1  UNL1        0.0626
     26 H          34.2812   32.2555   31.2130 H       1  UNL1        0.0618
     27 H          32.2513   31.1031   31.8187 H       1  UNL1        0.0619
     28 H          31.7392   30.6624   34.1282 H       1  UNL1        0.0654
     29 H          36.7138   33.6693   37.7151 H       1  UNL1        0.0405
     30 H          36.7691   30.7676   37.8703 H       1  UNL1        0.0351
     31 H          37.1233   31.5165   39.4086 H       1  UNL1        0.0351
     32 H          38.9443   33.0001   39.6782 H       1  UNL1        0.0306
     33 H          39.7038   33.6937   38.2657 H       1  UNL1        0.0306
     34 H          40.3066   32.1967   38.9355 H       1  UNL1        0.0306
     35 H          35.3360   31.1957   39.9945 H       1  UNL1        0.0620
     36 H          34.0081   31.7353   41.9362 H       1  UNL1        0.0618
     37 H          33.2332   33.9947   42.2790 H       1  UNL1        0.0618
     38 H          33.7793   35.7142   40.6747 H       1  UNL1        0.0618
     39 H          35.1223   35.1784   38.7409 H       1  UNL1        0.0620
@<TRIPOS>BOND
     1     1     5   ar
     2     1     9   ar
     3     1     4   ar
     4     2    10   ar
     5     2     3   ar
     6     2    11    2
     7     3     4   ar
     8     3    14    1
     9     4    12    1
    10     5     6   ar
    11     6     7   ar
    12     7     8   ar
    13     8     9   ar
    14     9    10   ar
    15    12    13    1
    16    14    15    1
    17    14    19    1
    18    15    16    1
    19    16    18    2
    20    16    17    1
    21    19    24   ar
    22    19    20   ar
    23    20    21   ar
    24    21    22   ar
    25    22    23   ar
    26    23    24   ar
    27     5    25    1
    28     6    26    1
    29     7    27    1
    30     8    28    1
    31    14    29    1
    32    15    30    1
    33    15    31    1
    34    17    32    1
    35    17    33    1
    36    17    34    1
    37    20    35    1
    38    21    36    1
    39    22    37    1
    40    23    38    1
    41    24    39    1
