Results/Site1/APO/RWF/RWF-Site1_1.pdb
 OpenBabel08312517013D

 39 41  0  0  1  0  0  0  0  0999 V2000
   34.6660   32.2400   34.5240 C   0  0  0  0  0  0  0  0  0  0  0  0
   34.0470   31.7110   37.1550 C   0  0  0  0  0  0  0  0  0  0  0  0
   35.2420   32.3910   36.8830 C   0  0  0  0  0  0  0  0  0  0  0  0
   35.5840   32.6690   35.5890 C   0  0  0  0  0  0  0  0  0  0  0  0
   34.9530   32.4890   33.1800 C   0  0  0  0  0  0  0  0  0  0  0  0
   34.0720   32.0730   32.2070 C   0  0  0  0  0  0  0  0  0  0  0  0
   32.9050   31.4100   32.5560 C   0  0  0  0  0  0  0  0  0  0  0  0
   32.6100   31.1570   33.8790 C   0  0  0  0  0  0  0  0  0  0  0  0
   33.4850   31.5680   34.8760 C   0  0  0  0  0  0  0  0  0  0  0  0
   33.2120   31.3270   36.1760 O   0  0  0  0  0  0  0  0  0  0  0  0
   33.7520   31.4700   38.3120 O   0  0  0  0  0  0  0  0  0  0  0  0
   36.7340   33.3200   35.2960 O   0  0  0  0  0  0  0  0  0  0  0  0
   37.1420   33.5580   36.1390 H   0  0  0  0  0  0  0  0  0  0  0  0
   36.1490   32.8100   38.0110 C   0  0  2  0  0  0  0  0  0  0  0  0
   37.1040   31.6640   38.3490 C   0  0  0  0  0  0  0  0  0  0  0  0
   38.4890   32.0050   37.8640 C   0  0  0  0  0  0  0  0  0  0  0  0
   39.4290   32.7800   38.7500 C   0  0  0  0  0  0  0  0  0  0  0  0
   38.8460   31.6570   36.7650 O   0  0  0  0  0  0  0  0  0  0  0  0
   35.3200   33.1470   39.2220 C   0  0  0  0  0  0  0  0  0  0  0  0
   35.0040   32.1620   40.1400 C   0  0  0  0  0  0  0  0  0  0  0  0
   34.2440   32.4710   41.2520 C   0  0  0  0  0  0  0  0  0  0  0  0
   33.8000   33.7640   41.4480 C   0  0  0  0  0  0  0  0  0  0  0  0
   34.1150   34.7490   40.5310 C   0  0  0  0  0  0  0  0  0  0  0  0
   34.8800   34.4410   39.4210 C   0  0  0  0  0  0  0  0  0  0  0  0
   35.8207   32.9821   32.9176 H   0  0  0  0  0  0  0  0  0  0  0  0
   34.2812   32.2555   31.2130 H   0  0  0  0  0  0  0  0  0  0  0  0
   32.2513   31.1031   31.8187 H   0  0  0  0  0  0  0  0  0  0  0  0
   31.7392   30.6624   34.1282 H   0  0  0  0  0  0  0  0  0  0  0  0
   36.7138   33.6693   37.7151 H   0  0  0  0  0  0  0  0  0  0  0  0
   36.7691   30.7676   37.8703 H   0  0  0  0  0  0  0  0  0  0  0  0
   37.1233   31.5165   39.4086 H   0  0  0  0  0  0  0  0  0  0  0  0
   38.9443   33.0001   39.6782 H   0  0  0  0  0  0  0  0  0  0  0  0
   39.7038   33.6937   38.2657 H   0  0  0  0  0  0  0  0  0  0  0  0
   40.3066   32.1967   38.9355 H   0  0  0  0  0  0  0  0  0  0  0  0
   35.3360   31.1957   39.9945 H   0  0  0  0  0  0  0  0  0  0  0  0
   34.0081   31.7353   41.9362 H   0  0  0  0  0  0  0  0  0  0  0  0
   33.2332   33.9947   42.2790 H   0  0  0  0  0  0  0  0  0  0  0  0
   33.7793   35.7142   40.6747 H   0  0  0  0  0  0  0  0  0  0  0  0
   35.1223   35.1784   38.7409 H   0  0  0  0  0  0  0  0  0  0  0  0
  1  5  2  0  0  0  0
  1  9  1  0  0  0  0
  1  4  1  0  0  0  0
  2 10  1  0  0  0  0
  2  3  1  0  0  0  0
  2 11  2  0  0  0  0
  3  4  2  0  0  0  0
  3 14  1  0  0  0  0
  4 12  1  0  0  0  0
  5  6  1  0  0  0  0
  5 25  1  0  0  0  0
  6  7  2  0  0  0  0
  6 26  1  0  0  0  0
  7  8  1  0  0  0  0
  7 27  1  0  0  0  0
  8  9  2  0  0  0  0
  8 28  1  0  0  0  0
  9 10  1  0  0  0  0
 12 13  1  0  0  0  0
 14 15  1  0  0  0  0
 14 19  1  0  0  0  0
 14 29  1  6  0  0  0
 15 16  1  0  0  0  0
 15 30  1  0  0  0  0
 15 31  1  0  0  0  0
 16 18  2  0  0  0  0
 16 17  1  0  0  0  0
 17 32  1  0  0  0  0
 17 33  1  0  0  0  0
 17 34  1  0  0  0  0
 19 24  2  0  0  0  0
 19 20  1  0  0  0  0
 20 21  2  0  0  0  0
 20 35  1  0  0  0  0
 21 22  1  0  0  0  0
 21 36  1  0  0  0  0
 22 23  2  0  0  0  0
 22 37  1  0  0  0  0
 23 24  1  0  0  0  0
 23 38  1  0  0  0  0
 24 39  1  0  0  0  0
M  END
