Results/Site1/HOLO/ENB/ENB-Site1_1.pdb
 OpenBabel08312517003D

102102  0  0  1  0  0  0  0  0999 V2000
   13.0970   -3.7900    3.7330 O   0  0  0  0  0  0  0  0  0  0  0  0
    9.7850   -3.3310   -0.2170 O   0  0  0  0  0  0  0  0  0  0  0  0
   12.3660    0.4900    0.8270 O   0  0  0  0  0  0  0  0  0  0  0  0
   13.1240   -3.7460    1.1420 O   0  0  0  0  0  0  0  0  0  0  0  0
   14.7370   -1.3870    1.8530 O   0  0  0  0  0  0  0  0  0  0  0  0
    9.6770   -0.6580   -2.0480 O   0  0  0  0  0  0  0  0  0  0  0  0
   11.3430   -2.3040    3.9180 O   0  0  0  0  0  0  0  0  0  0  0  0
   10.6910   -3.4300   -2.3320 O   0  0  0  0  0  0  0  0  0  0  0  0
   12.1240    2.7250    0.3570 O   0  0  0  0  0  0  0  0  0  0  0  0
   11.3490   -5.1870    0.7950 N   0  0  0  0  0  0  0  0  0  0  0  0
   13.4240   -0.4150    3.5010 N   0  0  0  0  0  0  0  0  0  0  0  0
    9.8330   -0.1460    0.2150 N   0  0  0  0  0  0  0  0  0  0  0  0
   11.4550   -4.9980   -0.6670 C   0  0  2  0  0  0  0  0  0  0  0  0
   13.6200   -1.5830    4.3840 C   0  0  2  0  0  0  0  0  0  0  0  0
   10.2560    1.2460   -0.0460 C   0  0  2  0  0  0  0  0  0  0  0  0
   12.2510   -4.7830    3.1130 C   0  0  1  0  0  0  0  0  0  0  0  0
    8.8210   -2.3120   -0.5330 C   0  0  1  0  0  0  0  0  0  0  0  0
   13.7210    0.6990    1.2710 C   0  0  1  0  0  0  0  0  0  0  0  0
   12.2800   -4.5210    1.6050 C   0  0  0  0  0  0  0  0  0  0  0  0
   14.0130   -0.4580    2.2250 C   0  0  0  0  0  0  0  0  0  0  0  0
    9.4900   -0.9710   -0.8690 C   0  0  0  0  0  0  0  0  0  0  0  0
   12.5330   -2.5750    4.0030 C   0  0  0  0  0  0  0  0  0  0  0  0
   10.6200   -3.8230   -1.1730 C   0  0  0  0  0  0  0  0  0  0  0  0
   11.6730    1.5860    0.4100 C   0  0  0  0  0  0  0  0  0  0  0  0
   10.2580   -6.0260    1.3000 C   0  0  0  0  0  0  0  0  0  0  0  0
   12.6030    0.6920    4.0020 C   0  0  0  0  0  0  0  0  0  0  0  0
    9.6220   -0.5380    1.6100 C   0  0  0  0  0  0  0  0  0  0  0  0
   12.8570   -6.1410    3.4350 C   0  0  0  0  0  0  0  0  0  0  0  0
   14.2560   -5.9800    4.0300 C   0  0  0  0  0  0  0  0  0  0  0  0
   11.9570   -6.9220    4.3920 C   0  0  0  0  0  0  0  0  0  0  0  0
   13.5770   -1.3040    5.8810 C   0  0  0  0  0  0  0  0  0  0  0  0
   13.6440   -2.6090    6.6720 C   0  0  0  0  0  0  0  0  0  0  0  0
   14.7160   -0.3720    6.2870 C   0  0  0  0  0  0  0  0  0  0  0  0
   11.1240   -6.2510   -1.4760 C   0  0  0  0  0  0  0  0  0  0  0  0
   12.3130   -6.6600   -2.3460 C   0  0  0  0  0  0  0  0  0  0  0  0
    9.8830   -6.0280   -2.3380 C   0  0  0  0  0  0  0  0  0  0  0  0
   14.6430    0.6740    0.0550 C   0  0  0  0  0  0  0  0  0  0  0  0
   13.9570   -0.0120   -1.1270 C   0  0  0  0  0  0  0  0  0  0  0  0
   15.0750    2.0880   -0.3250 C   0  0  0  0  0  0  0  0  0  0  0  0
    7.8430   -2.7720   -1.6140 C   0  0  0  0  0  0  0  0  0  0  0  0
    6.8190   -1.6780   -1.9130 C   0  0  0  0  0  0  0  0  0  0  0  0
    7.1420   -4.0620   -1.1920 C   0  0  0  0  0  0  0  0  0  0  0  0
    9.2540    2.2490    0.5300 C   0  0  0  0  0  0  0  0  0  0  0  0
    9.8380    2.9410    1.7580 C   0  0  0  0  0  0  0  0  0  0  0  0
    8.8570    3.2730   -0.5290 C   0  0  0  0  0  0  0  0  0  0  0  0
   12.4896   -4.7763   -0.8262 H   0  0  0  0  0  0  0  0  0  0  0  0
   14.6143   -1.9476    4.2315 H   0  0  0  0  0  0  0  0  0  0  0  0
   10.2722    1.3258   -1.1129 H   0  0  0  0  0  0  0  0  0  0  0  0
   11.2394   -4.7488    3.4601 H   0  0  0  0  0  0  0  0  0  0  0  0
    8.2390   -2.1417    0.3486 H   0  0  0  0  0  0  0  0  0  0  0  0
   13.8692    1.6381    1.7620 H   0  0  0  0  0  0  0  0  0  0  0  0
    9.6962   -6.4144    0.4764 H   0  0  0  0  0  0  0  0  0  0  0  0
    9.6167   -5.4395    1.9242 H   0  0  0  0  0  0  0  0  0  0  0  0
   10.6649   -6.8364    1.8680 H   0  0  0  0  0  0  0  0  0  0  0  0
   12.5502    1.4611    3.2600 H   0  0  0  0  0  0  0  0  0  0  0  0
   13.0425    1.0867    4.8941 H   0  0  0  0  0  0  0  0  0  0  0  0
   11.6173    0.3359    4.2174 H   0  0  0  0  0  0  0  0  0  0  0  0
    9.3208   -1.5639    1.6505 H   0  0  0  0  0  0  0  0  0  0  0  0
    8.8585    0.0752    2.0412 H   0  0  0  0  0  0  0  0  0  0  0  0
   10.5325   -0.4117    2.1576 H   0  0  0  0  0  0  0  0  0  0  0  0
   12.9388   -6.6937    2.5225 H   0  0  0  0  0  0  0  0  0  0  0  0
   14.1932   -5.4286    4.9448 H   0  0  0  0  0  0  0  0  0  0  0  0
   14.8794   -5.4532    3.3381 H   0  0  0  0  0  0  0  0  0  0  0  0
   14.6745   -6.9455    4.2236 H   0  0  0  0  0  0  0  0  0  0  0  0
   11.8629   -6.3841    5.3121 H   0  0  0  0  0  0  0  0  0  0  0  0
   12.3879   -7.8826    4.5829 H   0  0  0  0  0  0  0  0  0  0  0  0
   10.9901   -7.0461    3.9510 H   0  0  0  0  0  0  0  0  0  0  0  0
   12.6497   -0.8200    6.1064 H   0  0  0  0  0  0  0  0  0  0  0  0
   14.5662   -3.1081    6.4591 H   0  0  0  0  0  0  0  0  0  0  0  0
   12.8250   -3.2382    6.3921 H   0  0  0  0  0  0  0  0  0  0  0  0
   13.5877   -2.3948    7.7188 H   0  0  0  0  0  0  0  0  0  0  0  0
   15.6538   -0.8389    6.0691 H   0  0  0  0  0  0  0  0  0  0  0  0
   14.6539   -0.1687    7.3357 H   0  0  0  0  0  0  0  0  0  0  0  0
   14.6386    0.5448    5.7408 H   0  0  0  0  0  0  0  0  0  0  0  0
   10.9173   -7.0453   -0.7895 H   0  0  0  0  0  0  0  0  0  0  0  0
   12.5339   -5.8758   -3.0397 H   0  0  0  0  0  0  0  0  0  0  0  0
   12.0715   -7.5535   -2.8829 H   0  0  0  0  0  0  0  0  0  0  0  0
   13.1657   -6.8369   -1.7243 H   0  0  0  0  0  0  0  0  0  0  0  0
   10.0690   -5.2359   -3.0329 H   0  0  0  0  0  0  0  0  0  0  0  0
    9.0560   -5.7660   -1.7116 H   0  0  0  0  0  0  0  0  0  0  0  0
    9.6546   -6.9258   -2.8734 H   0  0  0  0  0  0  0  0  0  0  0  0
   15.5174    0.1128    0.3108 H   0  0  0  0  0  0  0  0  0  0  0  0
   13.0789    0.5365   -1.3971 H   0  0  0  0  0  0  0  0  0  0  0  0
   13.6840   -1.0092   -0.8512 H   0  0  0  0  0  0  0  0  0  0  0  0
   14.6281   -0.0433   -1.9598 H   0  0  0  0  0  0  0  0  0  0  0  0
   14.2132    2.6666   -0.5847 H   0  0  0  0  0  0  0  0  0  0  0  0
   15.7409    2.0448   -1.1614 H   0  0  0  0  0  0  0  0  0  0  0  0
   15.5737    2.5437    0.5048 H   0  0  0  0  0  0  0  0  0  0  0  0
    8.3980   -2.9676   -2.5076 H   0  0  0  0  0  0  0  0  0  0  0  0
    6.2531   -1.4681   -1.0295 H   0  0  0  0  0  0  0  0  0  0  0  0
    6.1601   -2.0086   -2.6885 H   0  0  0  0  0  0  0  0  0  0  0  0
    7.3268   -0.7913   -2.2304 H   0  0  0  0  0  0  0  0  0  0  0  0
    6.5804   -3.8868   -0.2982 H   0  0  0  0  0  0  0  0  0  0  0  0
    7.8728   -4.8222   -1.0108 H   0  0  0  0  0  0  0  0  0  0  0  0
    6.4817   -4.3805   -1.9714 H   0  0  0  0  0  0  0  0  0  0  0  0
    8.3749    1.7182    0.8305 H   0  0  0  0  0  0  0  0  0  0  0  0
   10.7199    3.4787    1.4787 H   0  0  0  0  0  0  0  0  0  0  0  0
   10.0863    2.2075    2.4964 H   0  0  0  0  0  0  0  0  0  0  0  0
    9.1173    3.6221    2.1601 H   0  0  0  0  0  0  0  0  0  0  0  0
    9.7241    3.8155   -0.8433 H   0  0  0  0  0  0  0  0  0  0  0  0
    8.1408    3.9529   -0.1170 H   0  0  0  0  0  0  0  0  0  0  0  0
    8.4277    2.7688   -1.3694 H   0  0  0  0  0  0  0  0  0  0  0  0
  1 16  1  0  0  0  0
  1 22  1  0  0  0  0
  2 23  1  0  0  0  0
  2 17  1  0  0  0  0
  3 24  1  0  0  0  0
  3 18  1  0  0  0  0
  4 19  2  0  0  0  0
  5 20  2  0  0  0  0
  6 21  2  0  0  0  0
  7 22  2  0  0  0  0
  8 23  2  0  0  0  0
  9 24  2  0  0  0  0
 10 13  1  0  0  0  0
 10 25  1  0  0  0  0
 10 19  1  0  0  0  0
 11 20  1  0  0  0  0
 11 26  1  0  0  0  0
 11 14  1  0  0  0  0
 12 21  1  0  0  0  0
 12 15  1  0  0  0  0
 12 27  1  0  0  0  0
 13 34  1  0  0  0  0
 13 23  1  0  0  0  0
 13 46  1  6  0  0  0
 14 22  1  0  0  0  0
 14 31  1  0  0  0  0
 14 47  1  6  0  0  0
 15 24  1  0  0  0  0
 15 43  1  0  0  0  0
 15 48  1  6  0  0  0
 16 19  1  0  0  0  0
 16 28  1  0  0  0  0
 16 49  1  1  0  0  0
 17 40  1  0  0  0  0
 17 21  1  0  0  0  0
 17 50  1  1  0  0  0
 18 37  1  0  0  0  0
 18 20  1  0  0  0  0
 18 51  1  1  0  0  0
 25 52  1  0  0  0  0
 25 53  1  0  0  0  0
 25 54  1  0  0  0  0
 26 55  1  0  0  0  0
 26 56  1  0  0  0  0
 26 57  1  0  0  0  0
 27 58  1  0  0  0  0
 27 59  1  0  0  0  0
 27 60  1  0  0  0  0
 28 29  1  0  0  0  0
 28 30  1  0  0  0  0
 28 61  1  0  0  0  0
 29 62  1  0  0  0  0
 29 63  1  0  0  0  0
 29 64  1  0  0  0  0
 30 65  1  0  0  0  0
 30 66  1  0  0  0  0
 30 67  1  0  0  0  0
 31 33  1  0  0  0  0
 31 32  1  0  0  0  0
 31 68  1  0  0  0  0
 32 69  1  0  0  0  0
 32 70  1  0  0  0  0
 32 71  1  0  0  0  0
 33 72  1  0  0  0  0
 33 73  1  0  0  0  0
 33 74  1  0  0  0  0
 34 35  1  0  0  0  0
 34 36  1  0  0  0  0
 34 75  1  0  0  0  0
 35 76  1  0  0  0  0
 35 77  1  0  0  0  0
 35 78  1  0  0  0  0
 36 79  1  0  0  0  0
 36 80  1  0  0  0  0
 36 81  1  0  0  0  0
 37 38  1  0  0  0  0
 37 39  1  0  0  0  0
 37 82  1  0  0  0  0
 38 83  1  0  0  0  0
 38 84  1  0  0  0  0
 38 85  1  0  0  0  0
 39 86  1  0  0  0  0
 39 87  1  0  0  0  0
 39 88  1  0  0  0  0
 40 41  1  0  0  0  0
 40 42  1  0  0  0  0
 40 89  1  0  0  0  0
 41 90  1  0  0  0  0
 41 91  1  0  0  0  0
 41 92  1  0  0  0  0
 42 93  1  0  0  0  0
 42 94  1  0  0  0  0
 42 95  1  0  0  0  0
 43 45  1  0  0  0  0
 43 44  1  0  0  0  0
 43 96  1  0  0  0  0
 44 97  1  0  0  0  0
 44 98  1  0  0  0  0
 44 99  1  0  0  0  0
 45100  1  0  0  0  0
 45101  1  0  0  0  0
 45102  1  0  0  0  0
M  END
