@<TRIPOS>MOLECULE
Results/Site2/HOLO/ENA1/ENA1-Site2_1.pdb
 108 108 0 0 0
SMALL
GASTEIGER

@<TRIPOS>ATOM
      1  O          6.8430   -1.3700  -24.8890 O.3     1  UNL1       -0.4503
      2  O          8.5040    2.6150  -22.6970 O.3     1  UNL1       -0.4503
      3  O         11.4430   -0.1450  -23.1280 O.3     1  UNL1       -0.4503
      4  O          8.3050    0.7840  -25.2900 O.2     1  UNL1       -0.2715
      5  O          7.0690   -1.3410  -22.5920 O.2     1  UNL1       -0.2487
      6  O         10.3580   -1.7710  -24.8280 O.2     1  UNL1       -0.2715
      7  O          8.6800    4.8800  -23.0680 O.2     1  UNL1       -0.2487
      8  O         10.2550    4.5050  -20.4050 O.2     1  UNL1       -0.2715
      9  O         12.2630    0.6190  -21.1110 O.2     1  UNL1       -0.2487
     10  N          6.7000    2.3170  -24.6160 N.am    1  UNL1       -0.2878
     11  N          9.3270   -2.9290  -23.1010 N.am    1  UNL1       -0.2878
     12  N         11.5300    3.2030  -21.8390 N.am    1  UNL1       -0.2878
     13  C          7.6430    3.4540  -24.7450 C.3     1  UNL1        0.1253
     14  C          8.1040   -3.1100  -23.9070 C.3     1  UNL1        0.1253
     15  C          6.1280   -0.1190  -24.8710 C.3     1  UNL1        0.1808
     16  C         11.6420    2.1730  -22.8930 C.3     1  UNL1        0.1250
     17  C         11.3390   -1.5090  -22.6670 C.3     1  UNL1        0.1808
     18  C          9.1050    2.6410  -21.3980 C.3     1  UNL1        0.1808
     19  C          7.1440    1.0270  -24.9410 C.2     1  UNL1        0.2571
     20  C          7.2830   -1.8470  -23.6850 C.2     1  UNL1        0.3288
     21  C         10.3230   -2.0980  -23.6360 C.2     1  UNL1        0.2571
     22  C          8.2970    3.7640  -23.3980 C.2     1  UNL1        0.3288
     23  C         10.3380    3.5460  -21.1800 C.2     1  UNL1        0.2571
     24  C         11.8370    0.8140  -22.2400 C.2     1  UNL1        0.3288
     25  C          5.3720    2.6280  -24.0780 C.3     1  UNL1        0.0041
     26  C          9.3770   -3.4930  -21.7500 C.3     1  UNL1        0.0041
     27  C         12.7490    3.9160  -21.4570 C.3     1  UNL1        0.0041
     28  C          5.2320   -0.1010  -26.1030 C.3     1  UNL1       -0.0008
     29  C          6.0620    0.0850  -27.3710 C.3     1  UNL1       -0.0588
     30  C          4.4060   -1.3840  -26.1880 C.3     1  UNL1       -0.0588
     31  C          7.2580   -4.3360  -23.5920 C.3     1  UNL1       -0.0151
     32  C          5.8100   -4.0880  -24.0210 C.3     1  UNL1       -0.0602
     33  C          7.7940   -5.6070  -24.2750 C.3     1  UNL1       -0.0511
     34  C          7.2610   -6.8970  -23.6650 C.3     1  UNL1       -0.0650
     35  C          7.0100    4.7010  -25.3610 C.3     1  UNL1       -0.0151
     36  C          6.5950    5.6730  -24.2530 C.3     1  UNL1       -0.0602
     37  C          7.9530    5.4110  -26.3490 C.3     1  UNL1       -0.0511
     38  C          8.8930    4.4640  -27.0800 C.3     1  UNL1       -0.0650
     39  C         12.6780   -2.2110  -22.7990 C.3     1  UNL1       -0.0008
     40  C         13.2710   -1.9800  -24.1870 C.3     1  UNL1       -0.0588
     41  C         12.5300   -3.7060  -22.5210 C.3     1  UNL1       -0.0588
     42  C          8.0010    2.9460  -20.3850 C.3     1  UNL1       -0.0008
     43  C          6.6640    2.3730  -20.8550 C.3     1  UNL1       -0.0588
     44  C          8.3650    2.3950  -19.0080 C.3     1  UNL1       -0.0588
     45  C         12.7410    2.4200  -23.9250 C.3     1  UNL1       -0.0177
     46  C         12.1800    2.3290  -25.3440 C.3     1  UNL1       -0.0605
     47  C         13.8890    1.4290  -23.7400 C.3     1  UNL1       -0.0605
     48 H           8.4021    3.1468  -25.4337 H       1  UNL1        0.0619
     49 H           8.4042   -3.2756  -24.9206 H       1  UNL1        0.0619
     50 H           5.5428   -0.0074  -23.9822 H       1  UNL1        0.0835
     51 H          10.7273    2.2148  -23.4466 H       1  UNL1        0.0619
     52 H          11.0561   -1.6031  -21.6394 H       1  UNL1        0.0835
     53 H           9.5393    1.6719  -21.2668 H       1  UNL1        0.0835
     54 H           4.7868    1.7333  -24.0332 H       1  UNL1        0.0429
     55 H           4.8875    3.3396  -24.7134 H       1  UNL1        0.0429
     56 H           5.4725    3.0380  -23.0948 H       1  UNL1        0.0429
     57 H           8.5050   -4.0894  -21.5800 H       1  UNL1        0.0429
     58 H           9.4116   -2.6993  -21.0332 H       1  UNL1        0.0429
     59 H          10.2509   -4.1023  -21.6500 H       1  UNL1        0.0429
     60 H          13.5713    3.5528  -22.0373 H       1  UNL1        0.0429
     61 H          12.9464    3.7537  -20.4180 H       1  UNL1        0.0429
     62 H          12.6208    4.9630  -21.6363 H       1  UNL1        0.0429
     63 H           4.5606    0.7275  -26.0151 H       1  UNL1        0.0336
     64 H           6.7409   -0.7353  -27.4764 H       1  UNL1        0.0234
     65 H           6.6145    0.9989  -27.3048 H       1  UNL1        0.0234
     66 H           5.4123    0.1217  -28.2204 H       1  UNL1        0.0234
     67 H           5.0615   -2.2250  -26.2765 H       1  UNL1        0.0234
     68 H           3.7652   -1.3396  -27.0438 H       1  UNL1        0.0234
     69 H           3.8129   -1.4856  -25.3032 H       1  UNL1        0.0234
     70 H           7.3060   -4.4967  -22.5352 H       1  UNL1        0.0321
     71 H           5.7736   -3.9287  -25.0784 H       1  UNL1        0.0233
     72 H           5.4317   -3.2234  -23.5168 H       1  UNL1        0.0233
     73 H           5.2123   -4.9386  -23.7677 H       1  UNL1        0.0233
     74 H           8.8610   -5.6102  -24.1945 H       1  UNL1        0.0266
     75 H           7.4632   -5.5804  -25.2922 H       1  UNL1        0.0266
     76 H           7.5709   -6.9629  -22.6430 H       1  UNL1        0.0230
     77 H           7.6455   -7.7343  -24.2090 H       1  UNL1        0.0230
     78 H           6.1921   -6.8999  -23.7145 H       1  UNL1        0.0230
     79 H           6.1502    4.3825  -25.9126 H       1  UNL1        0.0321
     80 H           7.4619    5.9845  -23.7087 H       1  UNL1        0.0233
     81 H           5.9125    5.1858  -23.5884 H       1  UNL1        0.0233
     82 H           6.1206    6.5279  -24.6877 H       1  UNL1        0.0233
     83 H           8.5421    6.1194  -25.8049 H       1  UNL1        0.0266
     84 H           7.3381    5.8774  -27.0901 H       1  UNL1        0.0266
     85 H           9.5284    3.9748  -26.3716 H       1  UNL1        0.0230
     86 H           9.4913    5.0190  -27.7720 H       1  UNL1        0.0230
     87 H           8.3204    3.7322  -27.6105 H       1  UNL1        0.0230
     88 H          13.3475   -1.7978  -22.0737 H       1  UNL1        0.0336
     89 H          12.6146   -2.3871  -24.9275 H       1  UNL1        0.0234
     90 H          14.2244   -2.4613  -24.2521 H       1  UNL1        0.0234
     91 H          13.3895   -0.9298  -24.3540 H       1  UNL1        0.0234
     92 H          11.8628   -4.1377  -23.2376 H       1  UNL1        0.0234
     93 H          12.1365   -3.8484  -21.5362 H       1  UNL1        0.0234
     94 H          13.4870   -4.1789  -22.5945 H       1  UNL1        0.0234
     95 H           7.9036    4.0087  -20.3074 H       1  UNL1        0.0336
     96 H           6.7416    1.3091  -20.9388 H       1  UNL1        0.0234
     97 H           6.4133    2.7886  -21.8086 H       1  UNL1        0.0234
     98 H           5.9012    2.6202  -20.1465 H       1  UNL1        0.0234
     99 H           8.4671    1.3314  -19.0650 H       1  UNL1        0.0234
    100 H           7.5931    2.6423  -18.3095 H       1  UNL1        0.0234
    101 H           9.2898    2.8253  -18.6847 H       1  UNL1        0.0234
    102 H          13.1218    3.4087  -23.7753 H       1  UNL1        0.0319
    103 H          11.7939    1.3454  -25.5125 H       1  UNL1        0.0233
    104 H          12.9588    2.5321  -26.0491 H       1  UNL1        0.0233
    105 H          11.3947    3.0458  -25.4637 H       1  UNL1        0.0233
    106 H          13.5271    0.4327  -23.8861 H       1  UNL1        0.0233
    107 H          14.2854    1.5230  -22.7506 H       1  UNL1        0.0233
    108 H          14.6584    1.6372  -24.4538 H       1  UNL1        0.0233
@<TRIPOS>BOND
     1     1    15    1
     2     1    20    1
     3     2    22    1
     4     2    18    1
     5     3    17    1
     6     3    24    1
     7     4    19    2
     8     5    20    2
     9     6    21    2
    10     7    22    2
    11     8    23    2
    12     9    24    2
    13    10    19   am
    14    10    13    1
    15    10    25    1
    16    11    14    1
    17    11    21   am
    18    11    26    1
    19    12    16    1
    20    12    27    1
    21    12    23   am
    22    13    35    1
    23    13    22    1
    24    14    20    1
    25    14    31    1
    26    15    28    1
    27    15    19    1
    28    16    45    1
    29    16    24    1
    30    17    21    1
    31    17    39    1
    32    18    23    1
    33    18    42    1
    34    28    29    1
    35    28    30    1
    36    31    33    1
    37    31    32    1
    38    33    34    1
    39    35    37    1
    40    35    36    1
    41    37    38    1
    42    39    40    1
    43    39    41    1
    44    42    43    1
    45    42    44    1
    46    45    46    1
    47    45    47    1
    48    13    48    1
    49    14    49    1
    50    15    50    1
    51    16    51    1
    52    17    52    1
    53    18    53    1
    54    25    54    1
    55    25    55    1
    56    25    56    1
    57    26    57    1
    58    26    58    1
    59    26    59    1
    60    27    60    1
    61    27    61    1
    62    27    62    1
    63    28    63    1
    64    29    64    1
    65    29    65    1
    66    29    66    1
    67    30    67    1
    68    30    68    1
    69    30    69    1
    70    31    70    1
    71    32    71    1
    72    32    72    1
    73    32    73    1
    74    33    74    1
    75    33    75    1
    76    34    76    1
    77    34    77    1
    78    34    78    1
    79    35    79    1
    80    36    80    1
    81    36    81    1
    82    36    82    1
    83    37    83    1
    84    37    84    1
    85    38    85    1
    86    38    86    1
    87    38    87    1
    88    39    88    1
    89    40    89    1
    90    40    90    1
    91    40    91    1
    92    41    92    1
    93    41    93    1
    94    41    94    1
    95    42    95    1
    96    43    96    1
    97    43    97    1
    98    43    98    1
    99    44    99    1
   100    44   100    1
   101    44   101    1
   102    45   102    1
   103    46   103    1
   104    46   104    1
   105    46   105    1
   106    47   106    1
   107    47   107    1
   108    47   108    1
