Results/Site2/HOLO/ENA1/ENA1-Site2_1.pdb
 OpenBabel08312517003D

108108  0  0  1  0  0  0  0  0999 V2000
    6.8430   -1.3700  -24.8890 O   0  0  0  0  0  0  0  0  0  0  0  0
    8.5040    2.6150  -22.6970 O   0  0  0  0  0  0  0  0  0  0  0  0
   11.4430   -0.1450  -23.1280 O   0  0  0  0  0  0  0  0  0  0  0  0
    8.3050    0.7840  -25.2900 O   0  0  0  0  0  0  0  0  0  0  0  0
    7.0690   -1.3410  -22.5920 O   0  0  0  0  0  0  0  0  0  0  0  0
   10.3580   -1.7710  -24.8280 O   0  0  0  0  0  0  0  0  0  0  0  0
    8.6800    4.8800  -23.0680 O   0  0  0  0  0  0  0  0  0  0  0  0
   10.2550    4.5050  -20.4050 O   0  0  0  0  0  0  0  0  0  0  0  0
   12.2630    0.6190  -21.1110 O   0  0  0  0  0  0  0  0  0  0  0  0
    6.7000    2.3170  -24.6160 N   0  0  0  0  0  0  0  0  0  0  0  0
    9.3270   -2.9290  -23.1010 N   0  0  0  0  0  0  0  0  0  0  0  0
   11.5300    3.2030  -21.8390 N   0  0  0  0  0  0  0  0  0  0  0  0
    7.6430    3.4540  -24.7450 C   0  0  2  0  0  0  0  0  0  0  0  0
    8.1040   -3.1100  -23.9070 C   0  0  2  0  0  0  0  0  0  0  0  0
    6.1280   -0.1190  -24.8710 C   0  0  1  0  0  0  0  0  0  0  0  0
   11.6420    2.1730  -22.8930 C   0  0  2  0  0  0  0  0  0  0  0  0
   11.3390   -1.5090  -22.6670 C   0  0  1  0  0  0  0  0  0  0  0  0
    9.1050    2.6410  -21.3980 C   0  0  1  0  0  0  0  0  0  0  0  0
    7.1440    1.0270  -24.9410 C   0  0  0  0  0  0  0  0  0  0  0  0
    7.2830   -1.8470  -23.6850 C   0  0  0  0  0  0  0  0  0  0  0  0
   10.3230   -2.0980  -23.6360 C   0  0  0  0  0  0  0  0  0  0  0  0
    8.2970    3.7640  -23.3980 C   0  0  0  0  0  0  0  0  0  0  0  0
   10.3380    3.5460  -21.1800 C   0  0  0  0  0  0  0  0  0  0  0  0
   11.8370    0.8140  -22.2400 C   0  0  0  0  0  0  0  0  0  0  0  0
    5.3720    2.6280  -24.0780 C   0  0  0  0  0  0  0  0  0  0  0  0
    9.3770   -3.4930  -21.7500 C   0  0  0  0  0  0  0  0  0  0  0  0
   12.7490    3.9160  -21.4570 C   0  0  0  0  0  0  0  0  0  0  0  0
    5.2320   -0.1010  -26.1030 C   0  0  0  0  0  0  0  0  0  0  0  0
    6.0620    0.0850  -27.3710 C   0  0  0  0  0  0  0  0  0  0  0  0
    4.4060   -1.3840  -26.1880 C   0  0  0  0  0  0  0  0  0  0  0  0
    7.2580   -4.3360  -23.5920 C   0  0  1  0  0  0  0  0  0  0  0  0
    5.8100   -4.0880  -24.0210 C   0  0  0  0  0  0  0  0  0  0  0  0
    7.7940   -5.6070  -24.2750 C   0  0  0  0  0  0  0  0  0  0  0  0
    7.2610   -6.8970  -23.6650 C   0  0  0  0  0  0  0  0  0  0  0  0
    7.0100    4.7010  -25.3610 C   0  0  1  0  0  0  0  0  0  0  0  0
    6.5950    5.6730  -24.2530 C   0  0  0  0  0  0  0  0  0  0  0  0
    7.9530    5.4110  -26.3490 C   0  0  0  0  0  0  0  0  0  0  0  0
    8.8930    4.4640  -27.0800 C   0  0  0  0  0  0  0  0  0  0  0  0
   12.6780   -2.2110  -22.7990 C   0  0  0  0  0  0  0  0  0  0  0  0
   13.2710   -1.9800  -24.1870 C   0  0  0  0  0  0  0  0  0  0  0  0
   12.5300   -3.7060  -22.5210 C   0  0  0  0  0  0  0  0  0  0  0  0
    8.0010    2.9460  -20.3850 C   0  0  0  0  0  0  0  0  0  0  0  0
    6.6640    2.3730  -20.8550 C   0  0  0  0  0  0  0  0  0  0  0  0
    8.3650    2.3950  -19.0080 C   0  0  0  0  0  0  0  0  0  0  0  0
   12.7410    2.4200  -23.9250 C   0  0  0  0  0  0  0  0  0  0  0  0
   12.1800    2.3290  -25.3440 C   0  0  0  0  0  0  0  0  0  0  0  0
   13.8890    1.4290  -23.7400 C   0  0  0  0  0  0  0  0  0  0  0  0
    8.4021    3.1468  -25.4337 H   0  0  0  0  0  0  0  0  0  0  0  0
    8.4042   -3.2756  -24.9206 H   0  0  0  0  0  0  0  0  0  0  0  0
    5.5428   -0.0074  -23.9822 H   0  0  0  0  0  0  0  0  0  0  0  0
   10.7273    2.2148  -23.4466 H   0  0  0  0  0  0  0  0  0  0  0  0
   11.0561   -1.6031  -21.6394 H   0  0  0  0  0  0  0  0  0  0  0  0
    9.5393    1.6719  -21.2668 H   0  0  0  0  0  0  0  0  0  0  0  0
    4.7868    1.7333  -24.0332 H   0  0  0  0  0  0  0  0  0  0  0  0
    4.8875    3.3396  -24.7134 H   0  0  0  0  0  0  0  0  0  0  0  0
    5.4725    3.0380  -23.0948 H   0  0  0  0  0  0  0  0  0  0  0  0
    8.5050   -4.0894  -21.5800 H   0  0  0  0  0  0  0  0  0  0  0  0
    9.4116   -2.6993  -21.0332 H   0  0  0  0  0  0  0  0  0  0  0  0
   10.2509   -4.1023  -21.6500 H   0  0  0  0  0  0  0  0  0  0  0  0
   13.5713    3.5528  -22.0373 H   0  0  0  0  0  0  0  0  0  0  0  0
   12.9464    3.7537  -20.4180 H   0  0  0  0  0  0  0  0  0  0  0  0
   12.6208    4.9630  -21.6363 H   0  0  0  0  0  0  0  0  0  0  0  0
    4.5606    0.7275  -26.0151 H   0  0  0  0  0  0  0  0  0  0  0  0
    6.7409   -0.7353  -27.4764 H   0  0  0  0  0  0  0  0  0  0  0  0
    6.6145    0.9989  -27.3048 H   0  0  0  0  0  0  0  0  0  0  0  0
    5.4123    0.1217  -28.2204 H   0  0  0  0  0  0  0  0  0  0  0  0
    5.0615   -2.2250  -26.2765 H   0  0  0  0  0  0  0  0  0  0  0  0
    3.7652   -1.3396  -27.0438 H   0  0  0  0  0  0  0  0  0  0  0  0
    3.8129   -1.4856  -25.3032 H   0  0  0  0  0  0  0  0  0  0  0  0
    7.3060   -4.4967  -22.5352 H   0  0  0  0  0  0  0  0  0  0  0  0
    5.7736   -3.9287  -25.0784 H   0  0  0  0  0  0  0  0  0  0  0  0
    5.4317   -3.2234  -23.5168 H   0  0  0  0  0  0  0  0  0  0  0  0
    5.2123   -4.9386  -23.7677 H   0  0  0  0  0  0  0  0  0  0  0  0
    8.8610   -5.6102  -24.1945 H   0  0  0  0  0  0  0  0  0  0  0  0
    7.4632   -5.5804  -25.2922 H   0  0  0  0  0  0  0  0  0  0  0  0
    7.5709   -6.9629  -22.6430 H   0  0  0  0  0  0  0  0  0  0  0  0
    7.6455   -7.7343  -24.2090 H   0  0  0  0  0  0  0  0  0  0  0  0
    6.1921   -6.8999  -23.7145 H   0  0  0  0  0  0  0  0  0  0  0  0
    6.1502    4.3825  -25.9126 H   0  0  0  0  0  0  0  0  0  0  0  0
    7.4619    5.9845  -23.7087 H   0  0  0  0  0  0  0  0  0  0  0  0
    5.9125    5.1858  -23.5884 H   0  0  0  0  0  0  0  0  0  0  0  0
    6.1206    6.5279  -24.6877 H   0  0  0  0  0  0  0  0  0  0  0  0
    8.5421    6.1194  -25.8049 H   0  0  0  0  0  0  0  0  0  0  0  0
    7.3381    5.8774  -27.0901 H   0  0  0  0  0  0  0  0  0  0  0  0
    9.5284    3.9748  -26.3716 H   0  0  0  0  0  0  0  0  0  0  0  0
    9.4913    5.0190  -27.7720 H   0  0  0  0  0  0  0  0  0  0  0  0
    8.3204    3.7322  -27.6105 H   0  0  0  0  0  0  0  0  0  0  0  0
   13.3475   -1.7978  -22.0737 H   0  0  0  0  0  0  0  0  0  0  0  0
   12.6146   -2.3871  -24.9275 H   0  0  0  0  0  0  0  0  0  0  0  0
   14.2244   -2.4613  -24.2521 H   0  0  0  0  0  0  0  0  0  0  0  0
   13.3895   -0.9298  -24.3540 H   0  0  0  0  0  0  0  0  0  0  0  0
   11.8628   -4.1377  -23.2376 H   0  0  0  0  0  0  0  0  0  0  0  0
   12.1365   -3.8484  -21.5362 H   0  0  0  0  0  0  0  0  0  0  0  0
   13.4870   -4.1789  -22.5945 H   0  0  0  0  0  0  0  0  0  0  0  0
    7.9036    4.0087  -20.3074 H   0  0  0  0  0  0  0  0  0  0  0  0
    6.7416    1.3091  -20.9388 H   0  0  0  0  0  0  0  0  0  0  0  0
    6.4133    2.7886  -21.8086 H   0  0  0  0  0  0  0  0  0  0  0  0
    5.9012    2.6202  -20.1465 H   0  0  0  0  0  0  0  0  0  0  0  0
    8.4671    1.3314  -19.0650 H   0  0  0  0  0  0  0  0  0  0  0  0
    7.5931    2.6423  -18.3095 H   0  0  0  0  0  0  0  0  0  0  0  0
    9.2898    2.8253  -18.6847 H   0  0  0  0  0  0  0  0  0  0  0  0
   13.1218    3.4087  -23.7753 H   0  0  0  0  0  0  0  0  0  0  0  0
   11.7939    1.3454  -25.5125 H   0  0  0  0  0  0  0  0  0  0  0  0
   12.9588    2.5321  -26.0491 H   0  0  0  0  0  0  0  0  0  0  0  0
   11.3947    3.0458  -25.4637 H   0  0  0  0  0  0  0  0  0  0  0  0
   13.5271    0.4327  -23.8861 H   0  0  0  0  0  0  0  0  0  0  0  0
   14.2854    1.5230  -22.7506 H   0  0  0  0  0  0  0  0  0  0  0  0
   14.6584    1.6372  -24.4538 H   0  0  0  0  0  0  0  0  0  0  0  0
  1 15  1  0  0  0  0
  1 20  1  0  0  0  0
  2 22  1  0  0  0  0
  2 18  1  0  0  0  0
  3 17  1  0  0  0  0
  3 24  1  0  0  0  0
  4 19  2  0  0  0  0
  5 20  2  0  0  0  0
  6 21  2  0  0  0  0
  7 22  2  0  0  0  0
  8 23  2  0  0  0  0
  9 24  2  0  0  0  0
 10 19  1  0  0  0  0
 10 13  1  0  0  0  0
 10 25  1  0  0  0  0
 11 14  1  0  0  0  0
 11 21  1  0  0  0  0
 11 26  1  0  0  0  0
 12 16  1  0  0  0  0
 12 27  1  0  0  0  0
 12 23  1  0  0  0  0
 13 35  1  0  0  0  0
 13 22  1  0  0  0  0
 13 48  1  6  0  0  0
 14 20  1  0  0  0  0
 14 31  1  0  0  0  0
 14 49  1  6  0  0  0
 15 28  1  0  0  0  0
 15 19  1  0  0  0  0
 15 50  1  1  0  0  0
 16 45  1  0  0  0  0
 16 24  1  0  0  0  0
 16 51  1  6  0  0  0
 17 21  1  0  0  0  0
 17 39  1  0  0  0  0
 17 52  1  1  0  0  0
 18 23  1  0  0  0  0
 18 42  1  0  0  0  0
 18 53  1  1  0  0  0
 25 54  1  0  0  0  0
 25 55  1  0  0  0  0
 25 56  1  0  0  0  0
 26 57  1  0  0  0  0
 26 58  1  0  0  0  0
 26 59  1  0  0  0  0
 27 60  1  0  0  0  0
 27 61  1  0  0  0  0
 27 62  1  0  0  0  0
 28 29  1  0  0  0  0
 28 30  1  0  0  0  0
 28 63  1  0  0  0  0
 29 64  1  0  0  0  0
 29 65  1  0  0  0  0
 29 66  1  0  0  0  0
 30 67  1  0  0  0  0
 30 68  1  0  0  0  0
 30 69  1  0  0  0  0
 31 33  1  0  0  0  0
 31 32  1  0  0  0  0
 31 70  1  1  0  0  0
 32 71  1  0  0  0  0
 32 72  1  0  0  0  0
 32 73  1  0  0  0  0
 33 34  1  0  0  0  0
 33 74  1  0  0  0  0
 33 75  1  0  0  0  0
 34 76  1  0  0  0  0
 34 77  1  0  0  0  0
 34 78  1  0  0  0  0
 35 37  1  0  0  0  0
 35 36  1  0  0  0  0
 35 79  1  6  0  0  0
 36 80  1  0  0  0  0
 36 81  1  0  0  0  0
 36 82  1  0  0  0  0
 37 38  1  0  0  0  0
 37 83  1  0  0  0  0
 37 84  1  0  0  0  0
 38 85  1  0  0  0  0
 38 86  1  0  0  0  0
 38 87  1  0  0  0  0
 39 40  1  0  0  0  0
 39 41  1  0  0  0  0
 39 88  1  0  0  0  0
 40 89  1  0  0  0  0
 40 90  1  0  0  0  0
 40 91  1  0  0  0  0
 41 92  1  0  0  0  0
 41 93  1  0  0  0  0
 41 94  1  0  0  0  0
 42 43  1  0  0  0  0
 42 44  1  0  0  0  0
 42 95  1  0  0  0  0
 43 96  1  0  0  0  0
 43 97  1  0  0  0  0
 43 98  1  0  0  0  0
 44 99  1  0  0  0  0
 44100  1  0  0  0  0
 44101  1  0  0  0  0
 45 46  1  0  0  0  0
 45 47  1  0  0  0  0
 45102  1  0  0  0  0
 46103  1  0  0  0  0
 46104  1  0  0  0  0
 46105  1  0  0  0  0
 47106  1  0  0  0  0
 47107  1  0  0  0  0
 47108  1  0  0  0  0
M  END
