@<TRIPOS>MOLECULE
IBP-Site2_1h.pdb
 33 33 0 0 0
SMALL
GASTEIGER

@<TRIPOS>ATOM
      1  C          7.2540    3.4480  -14.0160 C.ar    1  UNL1       -0.0339
      2  C          8.1530    2.4800  -14.4220 C.ar    1  UNL1       -0.0575
      3  C          9.4640    2.5310  -13.9910 C.ar    1  UNL1       -0.0583
      4  C          9.8770    3.5500  -13.1540 C.ar    1  UNL1       -0.0471
      5  C          8.9770    4.5140  -12.7440 C.ar    1  UNL1       -0.0583
      6  C          7.6670    4.4660  -13.1790 C.ar    1  UNL1       -0.0575
      7  C          5.8240    3.3940  -14.4870 C.3     1  UNL1        0.0784
      8  C          5.1360    2.1630  -13.8930 C.3     1  UNL1       -0.0482
      9  C          5.7930    3.3100  -15.9910 C.2     1  UNL1        0.3119
     10  O          5.3480    2.3250  -16.5320 O.2     1  UNL1       -0.2503
     11  O          6.2610    4.3280  -16.7300 O.3     1  UNL1       -0.4802
     12  H          7.2050    4.5400  -16.7190 H       1  UNL1        0.2951
     13  C         11.3080    3.6050  -12.6840 C.3     1  UNL1       -0.0253
     14  C         11.7540    2.2110  -12.2420 C.3     1  UNL1       -0.0427
     15  C         12.9630    1.7740  -13.0720 C.3     1  UNL1       -0.0624
     16  C         12.1370    2.2430  -10.7620 C.3     1  UNL1       -0.0624
     17  H          7.8450    1.7190  -15.0470 H       1  UNL1        0.0621
     18  H         10.1350    1.8080  -14.2940 H       1  UNL1        0.0620
     19  H          9.2830    5.2700  -12.1120 H       1  UNL1        0.0620
     20  H          6.9970    5.1910  -12.8790 H       1  UNL1        0.0621
     21  H          5.3110    4.2770  -14.1680 H       1  UNL1        0.0459
     22  H          5.6490    1.2790  -14.2110 H       1  UNL1        0.0241
     23  H          4.1200    2.1260  -14.2270 H       1  UNL1        0.0241
     24  H          5.1580    2.2230  -12.8250 H       1  UNL1        0.0241
     25  H         11.3870    4.2830  -11.8600 H       1  UNL1        0.0316
     26  H         11.9330    3.9420  -13.4840 H       1  UNL1        0.0316
     27  H         10.9520    1.5180  -12.3880 H       1  UNL1        0.0299
     28  H         13.7650    2.4670  -12.9260 H       1  UNL1        0.0232
     29  H         12.6950    1.7510  -14.1080 H       1  UNL1        0.0232
     30  H         13.2740    0.7980  -12.7630 H       1  UNL1        0.0232
     31  H         12.9390    2.9360  -10.6160 H       1  UNL1        0.0232
     32  H         12.4480    1.2670  -10.4530 H       1  UNL1        0.0232
     33  H         11.2920    2.5480  -10.1810 H       1  UNL1        0.0232
@<TRIPOS>BOND
     1     1     7    1
     2     1     2   ar
     3     1     6   ar
     4     2     3   ar
     5     2    17    1
     6     3     4   ar
     7     3    18    1
     8     4     5   ar
     9     4    13    1
    10     5     6   ar
    11     5    19    1
    12     6    20    1
    13     7     9    1
    14     7     8    1
    15     7    21    1
    16     8    22    1
    17     8    23    1
    18     8    24    1
    19     9    11    1
    20     9    10    2
    21    11    12    1
    22    13    14    1
    23    13    25    1
    24    13    26    1
    25    14    15    1
    26    14    16    1
    27    14    27    1
    28    15    28    1
    29    15    29    1
    30    15    30    1
    31    16    31    1
    32    16    32    1
    33    16    33    1
