@<TRIPOS>MOLECULE
Results/Site2/HOLO/ENA/ENA-Site2_1.pdb
 111 111 0 0 0
SMALL
GASTEIGER

@<TRIPOS>ATOM
      1  O         11.4280   -0.1340  -23.1420 O.3     1  UNL1       -0.4503
      2  O          6.8210   -1.3490  -24.8940 O.3     1  UNL1       -0.4503
      3  O          8.4940    2.6300  -22.6960 O.3     1  UNL1       -0.4503
      4  O         10.3350   -1.7560  -24.8440 O.2     1  UNL1       -0.2715
      5  O         10.2540    4.5120  -20.4060 O.2     1  UNL1       -0.2715
      6  O          8.2850    0.8040  -25.2940 O.2     1  UNL1       -0.2715
      7  O         12.2550    0.6250  -21.1270 O.2     1  UNL1       -0.2487
      8  O          7.0530   -1.3240  -22.5970 O.2     1  UNL1       -0.2487
      9  O          8.6720    4.8950  -23.0640 O.2     1  UNL1       -0.2487
     10  N          9.3080   -2.9140  -23.1160 N.am    1  UNL1       -0.2878
     11  N         11.5230    3.2120  -21.8470 N.am    1  UNL1       -0.2878
     12  N          6.6840    2.3390  -24.6120 N.am    1  UNL1       -0.2878
     13  C          8.0820   -3.0930  -23.9190 C.3     1  UNL1        0.1253
     14  C         11.6310    2.1830  -22.9030 C.3     1  UNL1        0.1253
     15  C          7.6280    3.4740  -24.7400 C.3     1  UNL1        0.1253
     16  C         11.3230   -1.4990  -22.6840 C.3     1  UNL1        0.1808
     17  C          6.1070   -0.0970  -24.8720 C.3     1  UNL1        0.1808
     18  C          9.0990    2.6510  -21.4000 C.3     1  UNL1        0.1808
     19  C         10.3030   -2.0840  -23.6520 C.2     1  UNL1        0.2571
     20  C         10.3330    3.5540  -21.1840 C.2     1  UNL1        0.2571
     21  C          7.1250    1.0480  -24.9420 C.2     1  UNL1        0.2571
     22  C         11.8260    0.8220  -22.2540 C.2     1  UNL1        0.3288
     23  C          7.2630   -1.8290  -23.6920 C.2     1  UNL1        0.3288
     24  C          8.2860    3.7810  -23.3950 C.2     1  UNL1        0.3288
     25  C          9.3620   -3.4820  -21.7670 C.3     1  UNL1        0.0041
     26  C         12.7440    3.9220  -21.4670 C.3     1  UNL1        0.0041
     27  C          5.3580    2.6510  -24.0700 C.3     1  UNL1        0.0041
     28  C         12.6610   -2.2030  -22.8220 C.3     1  UNL1       -0.0008
     29  C         13.2550   -1.9660  -24.2090 C.3     1  UNL1       -0.0588
     30  C         12.5120   -3.6990  -22.5520 C.3     1  UNL1       -0.0588
     31  C         12.7270    2.4320  -23.9380 C.3     1  UNL1       -0.0151
     32  C         13.8920    1.4680  -23.6990 C.3     1  UNL1       -0.0602
     33  C         12.2140    2.2840  -25.3810 C.3     1  UNL1       -0.0511
     34  C         11.1650    3.3180  -25.7630 C.3     1  UNL1       -0.0650
     35  C          7.2360   -4.3190  -23.6050 C.3     1  UNL1       -0.0151
     36  C          5.8050   -4.1030  -24.1060 C.3     1  UNL1       -0.0602
     37  C          7.8130   -5.6060  -24.2200 C.3     1  UNL1       -0.0511
     38  C          7.2090   -6.8790  -23.6430 C.3     1  UNL1       -0.0650
     39  C          7.9980    2.9560  -20.3820 C.3     1  UNL1       -0.0008
     40  C          6.6600    2.3950  -20.8550 C.3     1  UNL1       -0.0588
     41  C          8.3640    2.3900  -19.0110 C.3     1  UNL1       -0.0588
     42  C          5.2080   -0.0740  -26.1000 C.3     1  UNL1       -0.0008
     43  C          4.3470   -1.3350  -26.1620 C.3     1  UNL1       -0.0588
     44  C          6.0380    0.0690  -27.3750 C.3     1  UNL1       -0.0588
     45  C          6.9960    4.7230  -25.3520 C.3     1  UNL1       -0.0151
     46  C          6.5520    5.6830  -24.2430 C.3     1  UNL1       -0.0602
     47  C          7.9460    5.4530  -26.3200 C.3     1  UNL1       -0.0511
     48  C          7.7370    6.9600  -26.3530 C.3     1  UNL1       -0.0650
     49 H           8.3789   -3.2575  -24.9337 H       1  UNL1        0.0619
     50 H          10.7143    2.2259  -23.4533 H       1  UNL1        0.0619
     51 H           8.3851    3.1659  -25.4305 H       1  UNL1        0.0619
     52 H          11.0429   -1.5953  -21.6558 H       1  UNL1        0.0835
     53 H           5.5237    0.0127  -23.9817 H       1  UNL1        0.0835
     54 H           9.5320    1.6808  -21.2728 H       1  UNL1        0.0835
     55 H           8.4895   -4.0771  -21.5954 H       1  UNL1        0.0429
     56 H           9.4010   -2.6905  -21.0480 H       1  UNL1        0.0429
     57 H          10.2350   -4.0933  -21.6721 H       1  UNL1        0.0429
     58 H          13.5639    3.5592  -22.0509 H       1  UNL1        0.0429
     59 H          12.9445    3.7565  -20.4291 H       1  UNL1        0.0429
     60 H          12.6168    4.9697  -21.6430 H       1  UNL1        0.0429
     61 H           4.7713    1.7573  -24.0262 H       1  UNL1        0.0429
     62 H           4.8733    3.3653  -24.7023 H       1  UNL1        0.0429
     63 H           5.4617    3.0582  -23.0859 H       1  UNL1        0.0429
     64 H          13.3308   -1.7937  -22.0949 H       1  UNL1        0.0336
     65 H          12.5986   -2.3690  -24.9517 H       1  UNL1        0.0234
     66 H          14.2080   -2.4479  -24.2760 H       1  UNL1        0.0234
     67 H          13.3745   -0.9151  -24.3710 H       1  UNL1        0.0234
     68 H          11.8444   -4.1264  -23.2707 H       1  UNL1        0.0234
     69 H          12.1185   -3.8464  -21.5679 H       1  UNL1        0.0234
     70 H          13.4687   -4.1722  -22.6282 H       1  UNL1        0.0234
     71 H          13.0566    3.4430  -23.8193 H       1  UNL1        0.0321
     72 H          13.5520    0.4607  -23.8200 H       1  UNL1        0.0233
     73 H          14.2670    1.6010  -22.7057 H       1  UNL1        0.0233
     74 H          14.6713    1.6685  -24.4042 H       1  UNL1        0.0233
     75 H          11.7842    1.3101  -25.4891 H       1  UNL1        0.0266
     76 H          13.0523    2.4328  -26.0291 H       1  UNL1        0.0266
     77 H          10.3059    3.2031  -25.1356 H       1  UNL1        0.0230
     78 H          10.8815    3.1776  -26.7852 H       1  UNL1        0.0230
     79 H          11.5700    4.3003  -25.6369 H       1  UNL1        0.0230
     80 H           7.2402   -4.4442  -22.5424 H       1  UNL1        0.0321
     81 H           5.8141   -3.9792  -25.1688 H       1  UNL1        0.0233
     82 H           5.3953   -3.2269  -23.6483 H       1  UNL1        0.0233
     83 H           5.2058   -4.9520  -23.8509 H       1  UNL1        0.0233
     84 H           8.8683   -5.6219  -24.0439 H       1  UNL1        0.0266
     85 H           7.5757   -5.5900  -25.2632 H       1  UNL1        0.0266
     86 H           7.4247   -6.9335  -22.5964 H       1  UNL1        0.0230
     87 H           7.6288   -7.7294  -24.1385 H       1  UNL1        0.0230
     88 H           6.1490   -6.8687  -23.7886 H       1  UNL1        0.0230
     89 H           7.9048    4.0183  -20.2938 H       1  UNL1        0.0336
     90 H           6.7325    1.3317  -20.9497 H       1  UNL1        0.0234
     91 H           6.4099    2.8213  -21.8040 H       1  UNL1        0.0234
     92 H           5.8994    2.6386  -20.1430 H       1  UNL1        0.0234
     93 H           8.4619    1.3266  -19.0787 H       1  UNL1        0.0234
     94 H           7.5951    2.6333  -18.3078 H       1  UNL1        0.0234
     95 H           9.2913    2.8136  -18.6862 H       1  UNL1        0.0234
     96 H           4.5602    0.7741  -26.0226 H       1  UNL1        0.0336
     97 H           4.9790   -2.1949  -26.2398 H       1  UNL1        0.0234
     98 H           3.7042   -1.2864  -27.0160 H       1  UNL1        0.0234
     99 H           3.7549   -1.4067  -25.2736 H       1  UNL1        0.0234
    100 H           6.6934   -0.7714  -27.4701 H       1  UNL1        0.0234
    101 H           6.6159    0.9681  -27.3254 H       1  UNL1        0.0234
    102 H           5.3859    0.1104  -28.2223 H       1  UNL1        0.0234
    103 H           6.1484    4.3994  -25.9193 H       1  UNL1        0.0321
    104 H           7.4065    6.0001  -23.6825 H       1  UNL1        0.0233
    105 H           5.8644    5.1834  -23.5930 H       1  UNL1        0.0233
    106 H           6.0751    6.5357  -24.6792 H       1  UNL1        0.0233
    107 H           7.7877    5.0673  -27.3054 H       1  UNL1        0.0266
    108 H           8.9433    5.2807  -25.9727 H       1  UNL1        0.0266
    109 H           6.7468    7.1753  -26.6967 H       1  UNL1        0.0230
    110 H           8.4493    7.4044  -27.0163 H       1  UNL1        0.0230
    111 H           7.8679    7.3599  -25.3692 H       1  UNL1        0.0230
@<TRIPOS>BOND
     1     1    16    1
     2     1    22    1
     3     2    17    1
     4     2    23    1
     5     3    24    1
     6     3    18    1
     7     4    19    2
     8     5    20    2
     9     6    21    2
    10     7    22    2
    11     8    23    2
    12     9    24    2
    13    10    13    1
    14    10    19   am
    15    10    25    1
    16    11    14    1
    17    11    26    1
    18    11    20   am
    19    12    21   am
    20    12    15    1
    21    12    27    1
    22    13    23    1
    23    13    35    1
    24    14    31    1
    25    14    22    1
    26    15    45    1
    27    15    24    1
    28    16    19    1
    29    16    28    1
    30    17    42    1
    31    17    21    1
    32    18    20    1
    33    18    39    1
    34    28    29    1
    35    28    30    1
    36    31    33    1
    37    31    32    1
    38    33    34    1
    39    35    37    1
    40    35    36    1
    41    37    38    1
    42    39    40    1
    43    39    41    1
    44    42    44    1
    45    42    43    1
    46    45    47    1
    47    45    46    1
    48    47    48    1
    49    13    49    1
    50    14    50    1
    51    15    51    1
    52    16    52    1
    53    17    53    1
    54    18    54    1
    55    25    55    1
    56    25    56    1
    57    25    57    1
    58    26    58    1
    59    26    59    1
    60    26    60    1
    61    27    61    1
    62    27    62    1
    63    27    63    1
    64    28    64    1
    65    29    65    1
    66    29    66    1
    67    29    67    1
    68    30    68    1
    69    30    69    1
    70    30    70    1
    71    31    71    1
    72    32    72    1
    73    32    73    1
    74    32    74    1
    75    33    75    1
    76    33    76    1
    77    34    77    1
    78    34    78    1
    79    34    79    1
    80    35    80    1
    81    36    81    1
    82    36    82    1
    83    36    83    1
    84    37    84    1
    85    37    85    1
    86    38    86    1
    87    38    87    1
    88    38    88    1
    89    39    89    1
    90    40    90    1
    91    40    91    1
    92    40    92    1
    93    41    93    1
    94    41    94    1
    95    41    95    1
    96    42    96    1
    97    43    97    1
    98    43    98    1
    99    43    99    1
   100    44   100    1
   101    44   101    1
   102    44   102    1
   103    45   103    1
   104    46   104    1
   105    46   105    1
   106    46   106    1
   107    47   107    1
   108    47   108    1
   109    48   109    1
   110    48   110    1
   111    48   111    1
