@<TRIPOS>MOLECULE
ENA-Site2_1h.pdb
 111 111 0 0 0
SMALL
GASTEIGER

@<TRIPOS>ATOM
      1  O         11.4280   -0.1340  -23.1420 O.3     1  UNL1       -0.4503
      2  O          6.8210   -1.3490  -24.8940 O.3     1  UNL1       -0.4503
      3  O          8.4940    2.6300  -22.6960 O.3     1  UNL1       -0.4503
      4  O         10.3350   -1.7560  -24.8440 O.2     1  UNL1       -0.2715
      5  O         10.2540    4.5120  -20.4060 O.2     1  UNL1       -0.2715
      6  O          8.2850    0.8040  -25.2940 O.2     1  UNL1       -0.2715
      7  O         12.2550    0.6250  -21.1270 O.2     1  UNL1       -0.2487
      8  O          7.0530   -1.3240  -22.5970 O.2     1  UNL1       -0.2487
      9  O          8.6720    4.8950  -23.0640 O.2     1  UNL1       -0.2487
     10  N          9.3080   -2.9140  -23.1160 N.am    1  UNL1       -0.2878
     11  N         11.5230    3.2120  -21.8470 N.am    1  UNL1       -0.2878
     12  N          6.6840    2.3390  -24.6120 N.am    1  UNL1       -0.2878
     13  C          8.0820   -3.0930  -23.9190 C.3     1  UNL1        0.1253
     14  C         11.6310    2.1830  -22.9030 C.3     1  UNL1        0.1253
     15  C          7.6280    3.4740  -24.7400 C.3     1  UNL1        0.1253
     16  C         11.3230   -1.4990  -22.6840 C.3     1  UNL1        0.1808
     17  C          6.1070   -0.0970  -24.8720 C.3     1  UNL1        0.1808
     18  C          9.0990    2.6510  -21.4000 C.3     1  UNL1        0.1808
     19  C         10.3030   -2.0840  -23.6520 C.2     1  UNL1        0.2571
     20  C         10.3330    3.5540  -21.1840 C.2     1  UNL1        0.2571
     21  C          7.1250    1.0480  -24.9420 C.2     1  UNL1        0.2571
     22  C         11.8260    0.8220  -22.2540 C.2     1  UNL1        0.3288
     23  C          7.2630   -1.8290  -23.6920 C.2     1  UNL1        0.3288
     24  C          8.2860    3.7810  -23.3950 C.2     1  UNL1        0.3288
     25  C          9.3620   -3.4820  -21.7670 C.3     1  UNL1        0.0041
     26  C         12.7440    3.9220  -21.4670 C.3     1  UNL1        0.0041
     27  C          5.3580    2.6510  -24.0700 C.3     1  UNL1        0.0041
     28  C         12.6610   -2.2030  -22.8220 C.3     1  UNL1       -0.0008
     29  C         13.2550   -1.9660  -24.2090 C.3     1  UNL1       -0.0588
     30  C         12.5120   -3.6990  -22.5520 C.3     1  UNL1       -0.0588
     31  C         12.7270    2.4320  -23.9380 C.3     1  UNL1       -0.0151
     32  C         13.8920    1.4680  -23.6990 C.3     1  UNL1       -0.0602
     33  C         12.2140    2.2840  -25.3810 C.3     1  UNL1       -0.0511
     34  C         11.1650    3.3180  -25.7630 C.3     1  UNL1       -0.0650
     35  C          7.2360   -4.3190  -23.6050 C.3     1  UNL1       -0.0151
     36  C          5.8050   -4.1030  -24.1060 C.3     1  UNL1       -0.0602
     37  C          7.8130   -5.6060  -24.2200 C.3     1  UNL1       -0.0511
     38  C          7.2090   -6.8790  -23.6430 C.3     1  UNL1       -0.0650
     39  C          7.9980    2.9560  -20.3820 C.3     1  UNL1       -0.0008
     40  C          6.6600    2.3950  -20.8550 C.3     1  UNL1       -0.0588
     41  C          8.3640    2.3900  -19.0110 C.3     1  UNL1       -0.0588
     42  C          5.2080   -0.0740  -26.1000 C.3     1  UNL1       -0.0008
     43  C          4.3470   -1.3350  -26.1620 C.3     1  UNL1       -0.0588
     44  C          6.0380    0.0690  -27.3750 C.3     1  UNL1       -0.0588
     45  C          6.9960    4.7230  -25.3520 C.3     1  UNL1       -0.0151
     46  C          6.5520    5.6830  -24.2430 C.3     1  UNL1       -0.0602
     47  C          7.9460    5.4530  -26.3200 C.3     1  UNL1       -0.0511
     48  C          7.7370    6.9600  -26.3530 C.3     1  UNL1       -0.0650
     49  H          8.3790   -3.2570  -24.9340 H       1  UNL1        0.0619
     50  H         10.7140    2.2260  -23.4530 H       1  UNL1        0.0619
     51  H          8.3850    3.1660  -25.4310 H       1  UNL1        0.0619
     52  H         11.0430   -1.5950  -21.6560 H       1  UNL1        0.0835
     53  H          5.5240    0.0130  -23.9820 H       1  UNL1        0.0835
     54  H          9.5320    1.6810  -21.2730 H       1  UNL1        0.0835
     55  H          8.4890   -4.0770  -21.5950 H       1  UNL1        0.0429
     56  H          9.4010   -2.6900  -21.0480 H       1  UNL1        0.0429
     57  H         10.2350   -4.0930  -21.6720 H       1  UNL1        0.0429
     58  H         13.5640    3.5590  -22.0510 H       1  UNL1        0.0429
     59  H         12.9440    3.7560  -20.4290 H       1  UNL1        0.0429
     60  H         12.6170    4.9700  -21.6430 H       1  UNL1        0.0429
     61  H          4.7710    1.7570  -24.0260 H       1  UNL1        0.0429
     62  H          4.8730    3.3650  -24.7020 H       1  UNL1        0.0429
     63  H          5.4620    3.0580  -23.0860 H       1  UNL1        0.0429
     64  H         13.3310   -1.7940  -22.0950 H       1  UNL1        0.0336
     65  H         12.5990   -2.3690  -24.9520 H       1  UNL1        0.0234
     66  H         14.2080   -2.4480  -24.2760 H       1  UNL1        0.0234
     67  H         13.3750   -0.9150  -24.3710 H       1  UNL1        0.0234
     68  H         11.8440   -4.1260  -23.2710 H       1  UNL1        0.0234
     69  H         12.1190   -3.8460  -21.5680 H       1  UNL1        0.0234
     70  H         13.4690   -4.1720  -22.6280 H       1  UNL1        0.0234
     71  H         13.0570    3.4430  -23.8190 H       1  UNL1        0.0321
     72  H         13.5520    0.4610  -23.8200 H       1  UNL1        0.0233
     73  H         14.2670    1.6010  -22.7060 H       1  UNL1        0.0233
     74  H         14.6710    1.6690  -24.4040 H       1  UNL1        0.0233
     75  H         11.7840    1.3100  -25.4890 H       1  UNL1        0.0266
     76  H         13.0520    2.4330  -26.0290 H       1  UNL1        0.0266
     77  H         10.3060    3.2030  -25.1360 H       1  UNL1        0.0230
     78  H         10.8810    3.1780  -26.7850 H       1  UNL1        0.0230
     79  H         11.5700    4.3000  -25.6370 H       1  UNL1        0.0230
     80  H          7.2400   -4.4440  -22.5420 H       1  UNL1        0.0321
     81  H          5.8140   -3.9790  -25.1690 H       1  UNL1        0.0233
     82  H          5.3950   -3.2270  -23.6480 H       1  UNL1        0.0233
     83  H          5.2060   -4.9520  -23.8510 H       1  UNL1        0.0233
     84  H          8.8680   -5.6220  -24.0440 H       1  UNL1        0.0266
     85  H          7.5760   -5.5900  -25.2630 H       1  UNL1        0.0266
     86  H          7.4250   -6.9340  -22.5960 H       1  UNL1        0.0230
     87  H          7.6290   -7.7290  -24.1380 H       1  UNL1        0.0230
     88  H          6.1490   -6.8690  -23.7890 H       1  UNL1        0.0230
     89  H          7.9050    4.0180  -20.2940 H       1  UNL1        0.0336
     90  H          6.7330    1.3320  -20.9500 H       1  UNL1        0.0234
     91  H          6.4100    2.8210  -21.8040 H       1  UNL1        0.0234
     92  H          5.8990    2.6390  -20.1430 H       1  UNL1        0.0234
     93  H          8.4620    1.3270  -19.0790 H       1  UNL1        0.0234
     94  H          7.5950    2.6330  -18.3080 H       1  UNL1        0.0234
     95  H          9.2910    2.8140  -18.6860 H       1  UNL1        0.0234
     96  H          4.5600    0.7740  -26.0230 H       1  UNL1        0.0336
     97  H          4.9790   -2.1950  -26.2400 H       1  UNL1        0.0234
     98  H          3.7040   -1.2860  -27.0160 H       1  UNL1        0.0234
     99  H          3.7550   -1.4070  -25.2740 H       1  UNL1        0.0234
    100  H          6.6930   -0.7710  -27.4700 H       1  UNL1        0.0234
    101  H          6.6160    0.9680  -27.3250 H       1  UNL1        0.0234
    102  H          5.3860    0.1100  -28.2220 H       1  UNL1        0.0234
    103  H          6.1480    4.3990  -25.9190 H       1  UNL1        0.0321
    104  H          7.4070    6.0000  -23.6820 H       1  UNL1        0.0233
    105  H          5.8640    5.1830  -23.5930 H       1  UNL1        0.0233
    106  H          6.0750    6.5360  -24.6790 H       1  UNL1        0.0233
    107  H          7.7880    5.0670  -27.3050 H       1  UNL1        0.0266
    108  H          8.9430    5.2810  -25.9730 H       1  UNL1        0.0266
    109  H          6.7470    7.1750  -26.6970 H       1  UNL1        0.0230
    110  H          8.4490    7.4040  -27.0160 H       1  UNL1        0.0230
    111  H          7.8680    7.3600  -25.3690 H       1  UNL1        0.0230
@<TRIPOS>BOND
     1     1    16    1
     2     1    22    1
     3     2    17    1
     4     2    23    1
     5     3    24    1
     6     3    18    1
     7     4    19    2
     8     5    20    2
     9     6    21    2
    10     7    22    2
    11     8    23    2
    12     9    24    2
    13    10    13    1
    14    10    19   am
    15    10    25    1
    16    11    14    1
    17    11    26    1
    18    11    20   am
    19    12    21   am
    20    12    15    1
    21    12    27    1
    22    13    23    1
    23    13    35    1
    24    13    49    1
    25    14    31    1
    26    14    22    1
    27    14    50    1
    28    15    45    1
    29    15    24    1
    30    15    51    1
    31    16    19    1
    32    16    28    1
    33    16    52    1
    34    17    42    1
    35    17    21    1
    36    17    53    1
    37    18    20    1
    38    18    39    1
    39    18    54    1
    40    25    55    1
    41    25    56    1
    42    25    57    1
    43    26    58    1
    44    26    59    1
    45    26    60    1
    46    27    61    1
    47    27    62    1
    48    27    63    1
    49    28    29    1
    50    28    30    1
    51    28    64    1
    52    29    65    1
    53    29    66    1
    54    29    67    1
    55    30    68    1
    56    30    69    1
    57    30    70    1
    58    31    33    1
    59    31    32    1
    60    31    71    1
    61    32    72    1
    62    32    73    1
    63    32    74    1
    64    33    34    1
    65    33    75    1
    66    33    76    1
    67    34    77    1
    68    34    78    1
    69    34    79    1
    70    35    37    1
    71    35    36    1
    72    35    80    1
    73    36    81    1
    74    36    82    1
    75    36    83    1
    76    37    38    1
    77    37    84    1
    78    37    85    1
    79    38    86    1
    80    38    87    1
    81    38    88    1
    82    39    40    1
    83    39    41    1
    84    39    89    1
    85    40    90    1
    86    40    91    1
    87    40    92    1
    88    41    93    1
    89    41    94    1
    90    41    95    1
    91    42    44    1
    92    42    43    1
    93    42    96    1
    94    43    97    1
    95    43    98    1
    96    43    99    1
    97    44   100    1
    98    44   101    1
    99    44   102    1
   100    45    47    1
   101    45    46    1
   102    45   103    1
   103    46   104    1
   104    46   105    1
   105    46   106    1
   106    47    48    1
   107    47   107    1
   108    47   108    1
   109    48   109    1
   110    48   110    1
   111    48   111    1
