@<TRIPOS>MOLECULE
WAR-Site1_1h.pdb
 39 41 0 0 0
SMALL
GASTEIGER

@<TRIPOS>ATOM
      1  C          3.5940  -11.1780    9.8670 C.ar    1  UNL1        0.0593
      2  C          5.5710  -11.1510    7.9480 C.ar    1  UNL1        0.3446
      3  C          4.4010  -10.4180    7.7010 C.ar    1  UNL1        0.0866
      4  C          3.3980  -10.4100    8.6290 C.ar    1  UNL1        0.1381
      5  C          2.6100  -11.2160   10.8560 C.ar    1  UNL1       -0.0475
      6  C          2.8260  -11.9460   12.0040 C.ar    1  UNL1       -0.0609
      7  C          4.0130  -12.6420   12.1790 C.ar    1  UNL1       -0.0582
      8  C          4.9930  -12.6130   11.2090 C.ar    1  UNL1       -0.0185
      9  C          4.7950  -11.8830   10.0440 C.ar    1  UNL1        0.1426
     10  O          5.7430  -11.8460    9.0840 O.2     1  UNL1       -0.4217
     11  O          6.4590  -11.1490    7.1140 O.2     1  UNL1       -0.2447
     12  O          2.2560   -9.7150    8.4150 O.3     1  UNL1       -0.5055
     13  H          2.2390   -9.0000    9.0640 H       1  UNL1        0.2922
     14  C          4.2490   -9.6460    6.4160 C.3     1  UNL1        0.0262
     15  C          3.2930   -8.4720    6.6360 C.3     1  UNL1        0.0167
     16  C          4.0400   -7.1750    6.4580 C.2     1  UNL1        0.1312
     17  C          4.0860   -6.1720    7.5820 C.3     1  UNL1       -0.0060
     18  O          4.6010   -6.9400    5.4160 O.2     1  UNL1       -0.2977
     19  C          3.6950  -10.5520    5.3490 C.ar    1  UNL1       -0.0392
     20  C          2.3300  -10.6140    5.1340 C.ar    1  UNL1       -0.0580
     21  C          1.8210  -11.4450    4.1540 C.ar    1  UNL1       -0.0615
     22  C          2.6750  -12.2140    3.3880 C.ar    1  UNL1       -0.0617
     23  C          4.0390  -12.1520    3.6020 C.ar    1  UNL1       -0.0615
     24  C          4.5490  -11.3170    4.5780 C.ar    1  UNL1       -0.0580
     25  H          1.7250  -10.7000   10.7280 H       1  UNL1        0.0626
     26  H          2.1010  -11.9750   12.7380 H       1  UNL1        0.0618
     27  H          4.1640  -13.1860   13.0430 H       1  UNL1        0.0619
     28  H          5.8730  -13.1330   11.3490 H       1  UNL1        0.0654
     29  H          5.2040   -9.2750    6.1080 H       1  UNL1        0.0405
     30  H          2.8920   -8.5190    7.6270 H       1  UNL1        0.0351
     31  H          2.4950   -8.5240    5.9250 H       1  UNL1        0.0351
     32  H          3.5370   -6.5490    8.4200 H       1  UNL1        0.0306
     33  H          3.6500   -5.2510    7.2560 H       1  UNL1        0.0306
     34  H          5.1030   -6.0040    7.8680 H       1  UNL1        0.0306
     35  H          1.6910  -10.0390    5.7060 H       1  UNL1        0.0620
     36  H          0.8020  -11.4910    3.9950 H       1  UNL1        0.0618
     37  H          2.2950  -12.8350    2.6560 H       1  UNL1        0.0618
     38  H          4.6770  -12.7300    3.0330 H       1  UNL1        0.0618
     39  H          5.5680  -11.2650    4.7310 H       1  UNL1        0.0620
@<TRIPOS>BOND
     1     1     4   ar
     2     1     9   ar
     3     1     5   ar
     4     2    11    2
     5     2     3   ar
     6     2    10   ar
     7     3    14    1
     8     3     4   ar
     9     4    12    1
    10     5     6   ar
    11     5    25    1
    12     6     7   ar
    13     6    26    1
    14     7     8   ar
    15     7    27    1
    16     8     9   ar
    17     8    28    1
    18     9    10   ar
    19    12    13    1
    20    14    19    1
    21    14    15    1
    22    14    29    1
    23    15    16    1
    24    15    30    1
    25    15    31    1
    26    16    18    2
    27    16    17    1
    28    17    32    1
    29    17    33    1
    30    17    34    1
    31    19    24   ar
    32    19    20   ar
    33    20    21   ar
    34    20    35    1
    35    21    22   ar
    36    21    36    1
    37    22    23   ar
    38    22    37    1
    39    23    24   ar
    40    23    38    1
    41    24    39    1
