Results/Site1/HOLO/RWF/RWF-Site1_1.pdb
 OpenBabel08312517003D

 39 41  0  0  1  0  0  0  0  0999 V2000
    3.5940  -11.1780    9.8670 C   0  0  0  0  0  0  0  0  0  0  0  0
    5.5710  -11.1510    7.9480 C   0  0  0  0  0  0  0  0  0  0  0  0
    4.4010  -10.4180    7.7010 C   0  0  0  0  0  0  0  0  0  0  0  0
    3.3980  -10.4100    8.6290 C   0  0  0  0  0  0  0  0  0  0  0  0
    2.6100  -11.2160   10.8560 C   0  0  0  0  0  0  0  0  0  0  0  0
    2.8260  -11.9460   12.0040 C   0  0  0  0  0  0  0  0  0  0  0  0
    4.0130  -12.6420   12.1790 C   0  0  0  0  0  0  0  0  0  0  0  0
    4.9930  -12.6130   11.2090 C   0  0  0  0  0  0  0  0  0  0  0  0
    4.7950  -11.8830   10.0440 C   0  0  0  0  0  0  0  0  0  0  0  0
    5.7430  -11.8460    9.0840 O   0  0  0  0  0  0  0  0  0  0  0  0
    6.4590  -11.1490    7.1140 O   0  0  0  0  0  0  0  0  0  0  0  0
    2.2560   -9.7150    8.4150 O   0  0  0  0  0  0  0  0  0  0  0  0
    2.2390   -9.0000    9.0640 H   0  0  0  0  0  0  0  0  0  0  0  0
    4.2490   -9.6460    6.4160 C   0  0  2  0  0  0  0  0  0  0  0  0
    3.2930   -8.4720    6.6360 C   0  0  0  0  0  0  0  0  0  0  0  0
    4.0400   -7.1750    6.4580 C   0  0  0  0  0  0  0  0  0  0  0  0
    4.0860   -6.1720    7.5820 C   0  0  0  0  0  0  0  0  0  0  0  0
    4.6010   -6.9400    5.4160 O   0  0  0  0  0  0  0  0  0  0  0  0
    3.6950  -10.5520    5.3490 C   0  0  0  0  0  0  0  0  0  0  0  0
    2.3300  -10.6140    5.1340 C   0  0  0  0  0  0  0  0  0  0  0  0
    1.8210  -11.4450    4.1540 C   0  0  0  0  0  0  0  0  0  0  0  0
    2.6750  -12.2140    3.3880 C   0  0  0  0  0  0  0  0  0  0  0  0
    4.0390  -12.1520    3.6020 C   0  0  0  0  0  0  0  0  0  0  0  0
    4.5490  -11.3170    4.5780 C   0  0  0  0  0  0  0  0  0  0  0  0
    1.7255  -10.7000   10.7279 H   0  0  0  0  0  0  0  0  0  0  0  0
    2.1009  -11.9752   12.7377 H   0  0  0  0  0  0  0  0  0  0  0  0
    4.1642  -13.1863   13.0426 H   0  0  0  0  0  0  0  0  0  0  0  0
    5.8731  -13.1335   11.3487 H   0  0  0  0  0  0  0  0  0  0  0  0
    5.2040   -9.2747    6.1078 H   0  0  0  0  0  0  0  0  0  0  0  0
    2.8921   -8.5195    7.6269 H   0  0  0  0  0  0  0  0  0  0  0  0
    2.4949   -8.5242    5.9252 H   0  0  0  0  0  0  0  0  0  0  0  0
    3.5374   -6.5495    8.4195 H   0  0  0  0  0  0  0  0  0  0  0  0
    3.6502   -5.2508    7.2560 H   0  0  0  0  0  0  0  0  0  0  0  0
    5.1031   -6.0037    7.8685 H   0  0  0  0  0  0  0  0  0  0  0  0
    1.6913  -10.0394    5.7057 H   0  0  0  0  0  0  0  0  0  0  0  0
    0.8024  -11.4909    3.9945 H   0  0  0  0  0  0  0  0  0  0  0  0
    2.2949  -12.8345    2.6563 H   0  0  0  0  0  0  0  0  0  0  0  0
    4.6771  -12.7296    3.0326 H   0  0  0  0  0  0  0  0  0  0  0  0
    5.5683  -11.2648    4.7310 H   0  0  0  0  0  0  0  0  0  0  0  0
  1  4  1  0  0  0  0
  1  9  2  0  0  0  0
  1  5  1  0  0  0  0
  2 11  2  0  0  0  0
  2  3  1  0  0  0  0
  2 10  1  0  0  0  0
  3 14  1  0  0  0  0
  3  4  2  0  0  0  0
  4 12  1  0  0  0  0
  5  6  2  0  0  0  0
  5 25  1  0  0  0  0
  6  7  1  0  0  0  0
  6 26  1  0  0  0  0
  7  8  2  0  0  0  0
  7 27  1  0  0  0  0
  8  9  1  0  0  0  0
  8 28  1  0  0  0  0
  9 10  1  0  0  0  0
 12 13  1  0  0  0  0
 14 19  1  0  0  0  0
 14 15  1  0  0  0  0
 14 29  1  6  0  0  0
 15 16  1  0  0  0  0
 15 30  1  0  0  0  0
 15 31  1  0  0  0  0
 16 18  2  0  0  0  0
 16 17  1  0  0  0  0
 17 32  1  0  0  0  0
 17 33  1  0  0  0  0
 17 34  1  0  0  0  0
 19 24  2  0  0  0  0
 19 20  1  0  0  0  0
 20 21  2  0  0  0  0
 20 35  1  0  0  0  0
 21 22  1  0  0  0  0
 21 36  1  0  0  0  0
 22 23  2  0  0  0  0
 22 37  1  0  0  0  0
 23 24  1  0  0  0  0
 23 38  1  0  0  0  0
 24 39  1  0  0  0  0
M  END
