@<TRIPOS>MOLECULE
Results/Site1/HOLO/ENB/ENB-Site1_1.pdb
 102 102 0 0 0
SMALL
GASTEIGER

@<TRIPOS>ATOM
      1  O         13.0970   -3.7900    3.7330 O.3     1  UNL1       -0.4503
      2  O          9.7850   -3.3310   -0.2170 O.3     1  UNL1       -0.4503
      3  O         12.3660    0.4900    0.8270 O.3     1  UNL1       -0.4503
      4  O         13.1240   -3.7460    1.1420 O.2     1  UNL1       -0.2715
      5  O         14.7370   -1.3870    1.8530 O.2     1  UNL1       -0.2715
      6  O          9.6770   -0.6580   -2.0480 O.2     1  UNL1       -0.2715
      7  O         11.3430   -2.3040    3.9180 O.2     1  UNL1       -0.2487
      8  O         10.6910   -3.4300   -2.3320 O.2     1  UNL1       -0.2487
      9  O         12.1240    2.7250    0.3570 O.2     1  UNL1       -0.2487
     10  N         11.3490   -5.1870    0.7950 N.am    1  UNL1       -0.2878
     11  N         13.4240   -0.4150    3.5010 N.am    1  UNL1       -0.2878
     12  N          9.8330   -0.1460    0.2150 N.am    1  UNL1       -0.2878
     13  C         11.4550   -4.9980   -0.6670 C.3     1  UNL1        0.1250
     14  C         13.6200   -1.5830    4.3840 C.3     1  UNL1        0.1250
     15  C         10.2560    1.2460   -0.0460 C.3     1  UNL1        0.1250
     16  C         12.2510   -4.7830    3.1130 C.3     1  UNL1        0.1808
     17  C          8.8210   -2.3120   -0.5330 C.3     1  UNL1        0.1808
     18  C         13.7210    0.6990    1.2710 C.3     1  UNL1        0.1808
     19  C         12.2800   -4.5210    1.6050 C.2     1  UNL1        0.2571
     20  C         14.0130   -0.4580    2.2250 C.2     1  UNL1        0.2571
     21  C          9.4900   -0.9710   -0.8690 C.2     1  UNL1        0.2571
     22  C         12.5330   -2.5750    4.0030 C.2     1  UNL1        0.3288
     23  C         10.6200   -3.8230   -1.1730 C.2     1  UNL1        0.3288
     24  C         11.6730    1.5860    0.4100 C.2     1  UNL1        0.3288
     25  C         10.2580   -6.0260    1.3000 C.3     1  UNL1        0.0041
     26  C         12.6030    0.6920    4.0020 C.3     1  UNL1        0.0041
     27  C          9.6220   -0.5380    1.6100 C.3     1  UNL1        0.0041
     28  C         12.8570   -6.1410    3.4350 C.3     1  UNL1       -0.0008
     29  C         14.2560   -5.9800    4.0300 C.3     1  UNL1       -0.0588
     30  C         11.9570   -6.9220    4.3920 C.3     1  UNL1       -0.0588
     31  C         13.5770   -1.3040    5.8810 C.3     1  UNL1       -0.0177
     32  C         13.6440   -2.6090    6.6720 C.3     1  UNL1       -0.0605
     33  C         14.7160   -0.3720    6.2870 C.3     1  UNL1       -0.0605
     34  C         11.1240   -6.2510   -1.4760 C.3     1  UNL1       -0.0177
     35  C         12.3130   -6.6600   -2.3460 C.3     1  UNL1       -0.0605
     36  C          9.8830   -6.0280   -2.3380 C.3     1  UNL1       -0.0605
     37  C         14.6430    0.6740    0.0550 C.3     1  UNL1       -0.0008
     38  C         13.9570   -0.0120   -1.1270 C.3     1  UNL1       -0.0588
     39  C         15.0750    2.0880   -0.3250 C.3     1  UNL1       -0.0588
     40  C          7.8430   -2.7720   -1.6140 C.3     1  UNL1       -0.0008
     41  C          6.8190   -1.6780   -1.9130 C.3     1  UNL1       -0.0588
     42  C          7.1420   -4.0620   -1.1920 C.3     1  UNL1       -0.0588
     43  C          9.2540    2.2490    0.5300 C.3     1  UNL1       -0.0177
     44  C          9.8380    2.9410    1.7580 C.3     1  UNL1       -0.0605
     45  C          8.8570    3.2730   -0.5290 C.3     1  UNL1       -0.0605
     46 H          12.4896   -4.7763   -0.8262 H       1  UNL1        0.0619
     47 H          14.6143   -1.9476    4.2315 H       1  UNL1        0.0619
     48 H          10.2722    1.3258   -1.1129 H       1  UNL1        0.0619
     49 H          11.2394   -4.7488    3.4601 H       1  UNL1        0.0835
     50 H           8.2390   -2.1417    0.3486 H       1  UNL1        0.0835
     51 H          13.8692    1.6381    1.7620 H       1  UNL1        0.0835
     52 H           9.6962   -6.4144    0.4764 H       1  UNL1        0.0429
     53 H           9.6167   -5.4395    1.9242 H       1  UNL1        0.0429
     54 H          10.6649   -6.8364    1.8680 H       1  UNL1        0.0429
     55 H          12.5502    1.4611    3.2600 H       1  UNL1        0.0429
     56 H          13.0425    1.0867    4.8941 H       1  UNL1        0.0429
     57 H          11.6173    0.3359    4.2174 H       1  UNL1        0.0429
     58 H           9.3208   -1.5639    1.6505 H       1  UNL1        0.0429
     59 H           8.8585    0.0752    2.0412 H       1  UNL1        0.0429
     60 H          10.5325   -0.4117    2.1576 H       1  UNL1        0.0429
     61 H          12.9388   -6.6937    2.5225 H       1  UNL1        0.0336
     62 H          14.1932   -5.4286    4.9448 H       1  UNL1        0.0234
     63 H          14.8794   -5.4532    3.3381 H       1  UNL1        0.0234
     64 H          14.6745   -6.9455    4.2236 H       1  UNL1        0.0234
     65 H          11.8629   -6.3841    5.3121 H       1  UNL1        0.0234
     66 H          12.3879   -7.8826    4.5829 H       1  UNL1        0.0234
     67 H          10.9901   -7.0461    3.9510 H       1  UNL1        0.0234
     68 H          12.6497   -0.8200    6.1064 H       1  UNL1        0.0319
     69 H          14.5662   -3.1081    6.4591 H       1  UNL1        0.0233
     70 H          12.8250   -3.2382    6.3921 H       1  UNL1        0.0233
     71 H          13.5877   -2.3948    7.7188 H       1  UNL1        0.0233
     72 H          15.6538   -0.8389    6.0691 H       1  UNL1        0.0233
     73 H          14.6539   -0.1687    7.3357 H       1  UNL1        0.0233
     74 H          14.6386    0.5448    5.7408 H       1  UNL1        0.0233
     75 H          10.9173   -7.0453   -0.7895 H       1  UNL1        0.0319
     76 H          12.5339   -5.8758   -3.0397 H       1  UNL1        0.0233
     77 H          12.0715   -7.5535   -2.8829 H       1  UNL1        0.0233
     78 H          13.1657   -6.8369   -1.7243 H       1  UNL1        0.0233
     79 H          10.0690   -5.2359   -3.0329 H       1  UNL1        0.0233
     80 H           9.0560   -5.7660   -1.7116 H       1  UNL1        0.0233
     81 H           9.6546   -6.9258   -2.8734 H       1  UNL1        0.0233
     82 H          15.5174    0.1128    0.3108 H       1  UNL1        0.0336
     83 H          13.0789    0.5365   -1.3971 H       1  UNL1        0.0234
     84 H          13.6840   -1.0092   -0.8512 H       1  UNL1        0.0234
     85 H          14.6281   -0.0433   -1.9598 H       1  UNL1        0.0234
     86 H          14.2132    2.6666   -0.5847 H       1  UNL1        0.0234
     87 H          15.7409    2.0448   -1.1614 H       1  UNL1        0.0234
     88 H          15.5737    2.5437    0.5048 H       1  UNL1        0.0234
     89 H           8.3980   -2.9676   -2.5076 H       1  UNL1        0.0336
     90 H           6.2531   -1.4681   -1.0295 H       1  UNL1        0.0234
     91 H           6.1601   -2.0086   -2.6885 H       1  UNL1        0.0234
     92 H           7.3268   -0.7913   -2.2304 H       1  UNL1        0.0234
     93 H           6.5804   -3.8868   -0.2982 H       1  UNL1        0.0234
     94 H           7.8728   -4.8222   -1.0108 H       1  UNL1        0.0234
     95 H           6.4817   -4.3805   -1.9714 H       1  UNL1        0.0234
     96 H           8.3749    1.7182    0.8305 H       1  UNL1        0.0319
     97 H          10.7199    3.4787    1.4787 H       1  UNL1        0.0233
     98 H          10.0863    2.2075    2.4964 H       1  UNL1        0.0233
     99 H           9.1173    3.6221    2.1601 H       1  UNL1        0.0233
    100 H           9.7241    3.8155   -0.8433 H       1  UNL1        0.0233
    101 H           8.1408    3.9529   -0.1170 H       1  UNL1        0.0233
    102 H           8.4277    2.7688   -1.3694 H       1  UNL1        0.0233
@<TRIPOS>BOND
     1     1    16    1
     2     1    22    1
     3     2    23    1
     4     2    17    1
     5     3    24    1
     6     3    18    1
     7     4    19    2
     8     5    20    2
     9     6    21    2
    10     7    22    2
    11     8    23    2
    12     9    24    2
    13    10    13    1
    14    10    25    1
    15    10    19   am
    16    11    20   am
    17    11    26    1
    18    11    14    1
    19    12    21   am
    20    12    15    1
    21    12    27    1
    22    13    34    1
    23    13    23    1
    24    14    22    1
    25    14    31    1
    26    15    24    1
    27    15    43    1
    28    16    19    1
    29    16    28    1
    30    17    40    1
    31    17    21    1
    32    18    37    1
    33    18    20    1
    34    28    29    1
    35    28    30    1
    36    31    33    1
    37    31    32    1
    38    34    35    1
    39    34    36    1
    40    37    38    1
    41    37    39    1
    42    40    41    1
    43    40    42    1
    44    43    45    1
    45    43    44    1
    46    13    46    1
    47    14    47    1
    48    15    48    1
    49    16    49    1
    50    17    50    1
    51    18    51    1
    52    25    52    1
    53    25    53    1
    54    25    54    1
    55    26    55    1
    56    26    56    1
    57    26    57    1
    58    27    58    1
    59    27    59    1
    60    27    60    1
    61    28    61    1
    62    29    62    1
    63    29    63    1
    64    29    64    1
    65    30    65    1
    66    30    66    1
    67    30    67    1
    68    31    68    1
    69    32    69    1
    70    32    70    1
    71    32    71    1
    72    33    72    1
    73    33    73    1
    74    33    74    1
    75    34    75    1
    76    35    76    1
    77    35    77    1
    78    35    78    1
    79    36    79    1
    80    36    80    1
    81    36    81    1
    82    37    82    1
    83    38    83    1
    84    38    84    1
    85    38    85    1
    86    39    86    1
    87    39    87    1
    88    39    88    1
    89    40    89    1
    90    41    90    1
    91    41    91    1
    92    41    92    1
    93    42    93    1
    94    42    94    1
    95    42    95    1
    96    43    96    1
    97    44    97    1
    98    44    98    1
    99    44    99    1
   100    45   100    1
   101    45   101    1
   102    45   102    1
