@<TRIPOS>MOLECULE
ENB1-Site2_1h.pdb
  105   105     1     0     0
SMALL
bcc


@<TRIPOS>ATOM
      1 O            5.7090     6.4350   -24.3440 os         1 UNL      -0.409900
      2 O1           9.0780    10.4280   -24.3180 os         1 UNL      -0.419900
      3 O2          10.8410     6.0810   -24.9020 os         1 UNL      -0.445900
      4 O3           6.6990     9.2310   -22.5550 o          1 UNL      -0.576100
      5 O4           6.6950     7.3930   -26.1960 o          1 UNL      -0.560000
      6 O5           7.8540     6.5420   -22.8940 o          1 UNL      -0.576100
      7 O6          12.7710     8.6680   -24.6000 o          1 UNL      -0.570100
      8 O7           9.8910    12.5280   -24.7730 o          1 UNL      -0.555000
      9 O8          12.0980     6.2760   -22.9840 o          1 UNL      -0.500000
     10 N            6.1640     9.7790   -24.7450 n          1 UNL      -0.461800
     11 N1           8.9130     4.6870   -23.7820 n          1 UNL      -0.466800
     12 N2          10.8710     9.1530   -25.8510 n          1 UNL      -0.460800
     13 C            5.1730     8.6860   -24.8050 c3         1 UNL       0.061700
     14 C1          10.0970     4.9320   -22.9300 c3         1 UNL       0.066700
     15 C2          11.0410    10.6120   -25.6950 c3         1 UNL       0.063700
     16 C3           8.0040    10.9810   -23.5320 c3         1 UNL       0.084100
     17 C4           6.5510     5.2660   -24.4430 c3         1 UNL       0.088100
     18 C5          11.7580     6.8110   -25.7370 c3         1 UNL       0.108100
     19 C6           6.9030     9.9240   -23.5570 c          1 UNL       0.661100
     20 C7           5.9470     7.4480   -25.2290 c          1 UNL       0.621100
     21 C8           7.8240     5.5600   -23.6430 c          1 UNL       0.644100
     22 C9          11.8500     8.2900   -25.3310 c          1 UNL       0.645100
     23 C10          9.9420    11.3080   -24.8960 c          1 UNL       0.623100
     24 C11         11.1220     5.8510   -23.5910 c          1 UNL       0.619100
     25 C12          6.3360    10.6140   -25.9390 c3         1 UNL       0.064300
     26 C13          8.9730     3.5770   -24.7360 c3         1 UNL       0.067300
     27 C14          9.7750     8.6870   -26.7020 c3         1 UNL       0.061300
     28 C15          5.7790     4.1130   -23.8190 c3         1 UNL      -0.054700
     29 C16          4.3430     4.5310   -23.5080 c3         1 UNL      -0.095600
     30 C17          5.7930     2.8930   -24.7400 c3         1 UNL      -0.095600
     31 C18          3.9870     8.9090   -25.7360 c3         1 UNL      -0.063700
     32 C19          4.3720     8.5330   -27.1680 c3         1 UNL      -0.107100
     33 C20          2.7670     8.1170   -25.2330 c3         1 UNL      -0.085400
     34 C21          2.6920     8.0060   -23.7160 c3         1 UNL      -0.098100
     35 C22         10.7850     3.6530   -22.4510 c3         1 UNL      -0.069200
     36 C23         12.2890     3.7220   -22.7050 c3         1 UNL      -0.102600
     37 C24         10.5040     3.4120   -20.9680 c3         1 UNL      -0.102600
     38 C25          8.5140    11.2310   -22.1150 c3         1 UNL      -0.069700
     39 C26          8.5780    12.7290   -21.8210 c3         1 UNL      -0.093100
     40 C27          9.8840    10.5870   -21.9130 c3         1 UNL      -0.093100
     41 C28         13.1250     6.1320   -25.8090 c3         1 UNL      -0.089700
     42 C29         13.9990     6.7980   -26.8690 c3         1 UNL      -0.094600
     43 C30         12.9690     4.6420   -26.1000 c3         1 UNL      -0.094600
     44 C31         11.2340    11.2970   -27.0480 c3         1 UNL      -0.069200
     45 C32         12.5260    12.1100   -27.0560 c3         1 UNL      -0.102600
     46 C33         10.0370    12.1850   -27.3730 c3         1 UNL      -0.102600
     47 H            4.7160     8.6040   -23.8410 h1         1 UNL       0.133700
     48 H1           9.7000     5.4280   -22.0690 h1         1 UNL       0.122200
     49 H2          11.9300    10.7170   -25.1090 h1         1 UNL       0.122200
     50 H3           7.6380    11.9140   -23.9070 h1         1 UNL       0.095700
     51 H4           6.8120     5.0210   -25.4510 h1         1 UNL       0.084700
     52 H5          11.3620     6.7970   -26.7310 h1         1 UNL       0.088700
     53 H6           5.6530    10.2950   -26.6980 h1         1 UNL       0.050033
     54 H7           7.3390    10.5190   -26.2990 h1         1 UNL       0.050033
     55 H8           6.1410    11.6360   -25.6900 h1         1 UNL       0.050033
     56 H9           8.0520     3.5220   -25.2780 h1         1 UNL       0.051700
     57 H10          9.1310     2.6600   -24.2070 h1         1 UNL       0.051700
     58 H11          9.7800     3.7380   -25.4200 h1         1 UNL       0.051700
     59 H12          9.1580     9.5170   -26.9760 h1         1 UNL       0.054367
     60 H13          9.1890     7.9680   -26.1680 h1         1 UNL       0.054367
     61 H14         10.1760     8.2350   -27.5850 h1         1 UNL       0.054367
     62 H15          6.2600     3.8480   -22.9010 hc         1 UNL       0.057700
     63 H16          3.8450     4.8000   -24.4160 hc         1 UNL       0.044533
     64 H17          4.3520     5.3700   -22.8440 hc         1 UNL       0.044533
     65 H18          3.8260     3.7160   -23.0460 hc         1 UNL       0.044533
     66 H19          5.3160     3.1390   -25.6650 hc         1 UNL       0.044533
     67 H20          5.2690     2.0860   -24.2720 hc         1 UNL       0.044533
     68 H21          6.8050     2.5990   -24.9280 hc         1 UNL       0.044533
     69 H22          3.7160     9.9440   -25.7380 hc         1 UNL       0.071700
     70 H23          4.6490     7.5000   -27.2030 hc         1 UNL       0.043367
     71 H24          5.1980     9.1350   -27.4850 hc         1 UNL       0.043367
     72 H25          3.5380     8.7010   -27.8170 hc         1 UNL       0.043367
     73 H26          2.8130     7.1290   -25.6420 hc         1 UNL       0.050700
     74 H27          1.8950     8.6500   -25.5510 hc         1 UNL       0.050700
     75 H28          3.5490     7.4770   -23.3540 hc         1 UNL       0.039367
     76 H29          1.8040     7.4770   -23.4410 hc         1 UNL       0.039367
     77 H30          2.6710     8.9860   -23.2870 hc         1 UNL       0.039367
     78 H31         10.3860     2.8310   -23.0080 hc         1 UNL       0.060200
     79 H32         12.7060     4.5390   -22.1550 hc         1 UNL       0.045200
     80 H33         12.4680     3.8670   -23.7500 hc         1 UNL       0.045200
     81 H34         12.7470     2.8080   -22.3880 hc         1 UNL       0.045200
     82 H35         10.8960     4.2250   -20.3940 hc         1 UNL       0.045200
     83 H36         10.9710     2.5000   -20.6600 hc         1 UNL       0.045200
     84 H37          9.4480     3.3420   -20.8120 hc         1 UNL       0.045200
     85 H38          7.8260    10.7820   -21.4290 hc         1 UNL       0.073700
     86 H39          9.2620    13.1960   -22.4980 hc         1 UNL       0.044367
     87 H40          8.9110    12.8810   -20.8160 hc         1 UNL       0.044367
     88 H41          7.6060    13.1580   -21.9430 hc         1 UNL       0.044367
     89 H42         10.5870    11.0240   -22.5910 hc         1 UNL       0.044367
     90 H43          9.8150     9.5360   -22.0990 hc         1 UNL       0.044367
     91 H44         10.2100    10.7510   -20.9070 hc         1 UNL       0.044367
     92 H45         13.6060     6.2410   -24.8590 hc         1 UNL       0.099700
     93 H46         13.5340     6.7000   -27.8280 hc         1 UNL       0.040367
     94 H47         14.9590     6.3260   -26.8880 hc         1 UNL       0.040367
     95 H48         14.1170     7.8350   -26.6340 hc         1 UNL       0.040367
     96 H49         12.4890     4.5120   -27.0470 hc         1 UNL       0.040367
     97 H50         12.3750     4.1890   -25.3340 hc         1 UNL       0.040367
     98 H51         13.9340     4.1800   -26.1230 hc         1 UNL       0.040367
     99 H52         11.3070    10.5420   -27.8030 hc         1 UNL       0.060200
    100 H53         12.4730    12.8720   -26.3060 hc         1 UNL       0.045200
    101 H54         12.6560    12.5630   -28.0160 hc         1 UNL       0.045200
    102 H55         13.3550    11.4650   -26.8510 hc         1 UNL       0.045200
    103 H56          9.9460    12.9480   -26.6280 hc         1 UNL       0.045200
    104 H57          9.1460    11.5920   -27.3870 hc         1 UNL       0.045200
    105 H58         10.1790    12.6380   -28.3320 hc         1 UNL       0.045200
@<TRIPOS>BOND
     1     1    20 1   
     2     1    17 1   
     3     2    23 1   
     4     2    16 1   
     5     3    18 1   
     6     3    24 1   
     7     4    19 2   
     8     5    20 2   
     9     6    21 2   
    10     7    22 2   
    11     8    23 2   
    12     9    24 2   
    13    10    25 1   
    14    10    13 1   
    15    10    19 1   
    16    11    26 1   
    17    11    21 1   
    18    11    14 1   
    19    12    27 1   
    20    12    15 1   
    21    12    22 1   
    22    13    31 1   
    23    13    20 1   
    24    13    47 1   
    25    14    24 1   
    26    14    35 1   
    27    14    48 1   
    28    15    44 1   
    29    15    23 1   
    30    15    49 1   
    31    16    19 1   
    32    16    38 1   
    33    16    50 1   
    34    17    28 1   
    35    17    21 1   
    36    17    51 1   
    37    18    41 1   
    38    18    22 1   
    39    18    52 1   
    40    25    53 1   
    41    25    54 1   
    42    25    55 1   
    43    26    56 1   
    44    26    57 1   
    45    26    58 1   
    46    27    59 1   
    47    27    60 1   
    48    27    61 1   
    49    28    30 1   
    50    28    29 1   
    51    28    62 1   
    52    29    63 1   
    53    29    64 1   
    54    29    65 1   
    55    30    66 1   
    56    30    67 1   
    57    30    68 1   
    58    31    32 1   
    59    31    33 1   
    60    31    69 1   
    61    32    70 1   
    62    32    71 1   
    63    32    72 1   
    64    33    34 1   
    65    33    73 1   
    66    33    74 1   
    67    34    75 1   
    68    34    76 1   
    69    34    77 1   
    70    35    36 1   
    71    35    37 1   
    72    35    78 1   
    73    36    79 1   
    74    36    80 1   
    75    36    81 1   
    76    37    82 1   
    77    37    83 1   
    78    37    84 1   
    79    38    40 1   
    80    38    39 1   
    81    38    85 1   
    82    39    86 1   
    83    39    87 1   
    84    39    88 1   
    85    40    89 1   
    86    40    90 1   
    87    40    91 1   
    88    41    42 1   
    89    41    43 1   
    90    41    92 1   
    91    42    93 1   
    92    42    94 1   
    93    42    95 1   
    94    43    96 1   
    95    43    97 1   
    96    43    98 1   
    97    44    46 1   
    98    44    45 1   
    99    44    99 1   
   100    45   100 1   
   101    45   101 1   
   102    45   102 1   
   103    46   103 1   
   104    46   104 1   
   105    46   105 1   
@<TRIPOS>SUBSTRUCTURE
     1 UNL         1 TEMP              0 ****  ****    0 ROOT
