@<TRIPOS>MOLECULE
ENB1-Site2_1h.pdb
 105 105 0 0 0
SMALL
GASTEIGER

@<TRIPOS>ATOM
      1  O          5.7090    6.4350  -24.3440 O.3     1  UNL1       -0.4503
      2  O          9.0780   10.4280  -24.3180 O.3     1  UNL1       -0.4503
      3  O         10.8410    6.0810  -24.9020 O.3     1  UNL1       -0.4503
      4  O          6.6990    9.2310  -22.5550 O.2     1  UNL1       -0.2715
      5  O          6.6950    7.3930  -26.1960 O.2     1  UNL1       -0.2487
      6  O          7.8540    6.5420  -22.8940 O.2     1  UNL1       -0.2715
      7  O         12.7710    8.6680  -24.6000 O.2     1  UNL1       -0.2715
      8  O          9.8910   12.5280  -24.7730 O.2     1  UNL1       -0.2487
      9  O         12.0980    6.2760  -22.9840 O.2     1  UNL1       -0.2487
     10  N          6.1640    9.7790  -24.7450 N.am    1  UNL1       -0.2878
     11  N          8.9130    4.6870  -23.7820 N.am    1  UNL1       -0.2878
     12  N         10.8710    9.1530  -25.8510 N.am    1  UNL1       -0.2878
     13  C          5.1730    8.6860  -24.8050 C.3     1  UNL1        0.1253
     14  C         10.0970    4.9320  -22.9300 C.3     1  UNL1        0.1250
     15  C         11.0410   10.6120  -25.6950 C.3     1  UNL1        0.1250
     16  C          8.0040   10.9810  -23.5320 C.3     1  UNL1        0.1808
     17  C          6.5510    5.2660  -24.4430 C.3     1  UNL1        0.1808
     18  C         11.7580    6.8110  -25.7370 C.3     1  UNL1        0.1808
     19  C          6.9030    9.9240  -23.5570 C.2     1  UNL1        0.2571
     20  C          5.9470    7.4480  -25.2290 C.2     1  UNL1        0.3288
     21  C          7.8240    5.5600  -23.6430 C.2     1  UNL1        0.2571
     22  C         11.8500    8.2900  -25.3310 C.2     1  UNL1        0.2571
     23  C          9.9420   11.3080  -24.8960 C.2     1  UNL1        0.3288
     24  C         11.1220    5.8510  -23.5910 C.2     1  UNL1        0.3288
     25  C          6.3360   10.6140  -25.9390 C.3     1  UNL1        0.0041
     26  C          8.9730    3.5770  -24.7360 C.3     1  UNL1        0.0041
     27  C          9.7750    8.6870  -26.7020 C.3     1  UNL1        0.0041
     28  C          5.7790    4.1130  -23.8190 C.3     1  UNL1       -0.0008
     29  C          4.3430    4.5310  -23.5080 C.3     1  UNL1       -0.0588
     30  C          5.7930    2.8930  -24.7400 C.3     1  UNL1       -0.0588
     31  C          3.9870    8.9090  -25.7360 C.3     1  UNL1       -0.0151
     32  C          4.3720    8.5330  -27.1680 C.3     1  UNL1       -0.0602
     33  C          2.7670    8.1170  -25.2330 C.3     1  UNL1       -0.0511
     34  C          2.6920    8.0060  -23.7160 C.3     1  UNL1       -0.0650
     35  C         10.7850    3.6530  -22.4510 C.3     1  UNL1       -0.0177
     36  C         12.2890    3.7220  -22.7050 C.3     1  UNL1       -0.0605
     37  C         10.5040    3.4120  -20.9680 C.3     1  UNL1       -0.0605
     38  C          8.5140   11.2310  -22.1150 C.3     1  UNL1       -0.0008
     39  C          8.5780   12.7290  -21.8210 C.3     1  UNL1       -0.0588
     40  C          9.8840   10.5870  -21.9130 C.3     1  UNL1       -0.0588
     41  C         13.1250    6.1320  -25.8090 C.3     1  UNL1       -0.0008
     42  C         13.9990    6.7980  -26.8690 C.3     1  UNL1       -0.0588
     43  C         12.9690    4.6420  -26.1000 C.3     1  UNL1       -0.0588
     44  C         11.2340   11.2970  -27.0480 C.3     1  UNL1       -0.0177
     45  C         12.5260   12.1100  -27.0560 C.3     1  UNL1       -0.0605
     46  C         10.0370   12.1850  -27.3730 C.3     1  UNL1       -0.0605
     47  H          4.7160    8.6040  -23.8410 H       1  UNL1        0.0619
     48  H          9.7000    5.4280  -22.0690 H       1  UNL1        0.0619
     49  H         11.9300   10.7170  -25.1090 H       1  UNL1        0.0619
     50  H          7.6380   11.9140  -23.9070 H       1  UNL1        0.0835
     51  H          6.8120    5.0210  -25.4510 H       1  UNL1        0.0835
     52  H         11.3620    6.7970  -26.7310 H       1  UNL1        0.0835
     53  H          5.6530   10.2950  -26.6980 H       1  UNL1        0.0429
     54  H          7.3390   10.5190  -26.2990 H       1  UNL1        0.0429
     55  H          6.1410   11.6360  -25.6900 H       1  UNL1        0.0429
     56  H          8.0520    3.5220  -25.2780 H       1  UNL1        0.0429
     57  H          9.1310    2.6600  -24.2070 H       1  UNL1        0.0429
     58  H          9.7800    3.7380  -25.4200 H       1  UNL1        0.0429
     59  H          9.1580    9.5170  -26.9760 H       1  UNL1        0.0429
     60  H          9.1890    7.9680  -26.1680 H       1  UNL1        0.0429
     61  H         10.1760    8.2350  -27.5850 H       1  UNL1        0.0429
     62  H          6.2600    3.8480  -22.9010 H       1  UNL1        0.0336
     63  H          3.8450    4.8000  -24.4160 H       1  UNL1        0.0234
     64  H          4.3520    5.3700  -22.8440 H       1  UNL1        0.0234
     65  H          3.8260    3.7160  -23.0460 H       1  UNL1        0.0234
     66  H          5.3160    3.1390  -25.6650 H       1  UNL1        0.0234
     67  H          5.2690    2.0860  -24.2720 H       1  UNL1        0.0234
     68  H          6.8050    2.5990  -24.9280 H       1  UNL1        0.0234
     69  H          3.7160    9.9440  -25.7380 H       1  UNL1        0.0321
     70  H          4.6490    7.5000  -27.2030 H       1  UNL1        0.0233
     71  H          5.1980    9.1350  -27.4850 H       1  UNL1        0.0233
     72  H          3.5380    8.7010  -27.8170 H       1  UNL1        0.0233
     73  H          2.8130    7.1290  -25.6420 H       1  UNL1        0.0266
     74  H          1.8950    8.6500  -25.5510 H       1  UNL1        0.0266
     75  H          3.5490    7.4770  -23.3540 H       1  UNL1        0.0230
     76  H          1.8040    7.4770  -23.4410 H       1  UNL1        0.0230
     77  H          2.6710    8.9860  -23.2870 H       1  UNL1        0.0230
     78  H         10.3860    2.8310  -23.0080 H       1  UNL1        0.0319
     79  H         12.7060    4.5390  -22.1550 H       1  UNL1        0.0233
     80  H         12.4680    3.8670  -23.7500 H       1  UNL1        0.0233
     81  H         12.7470    2.8080  -22.3880 H       1  UNL1        0.0233
     82  H         10.8960    4.2250  -20.3940 H       1  UNL1        0.0233
     83  H         10.9710    2.5000  -20.6600 H       1  UNL1        0.0233
     84  H          9.4480    3.3420  -20.8120 H       1  UNL1        0.0233
     85  H          7.8260   10.7820  -21.4290 H       1  UNL1        0.0336
     86  H          9.2620   13.1960  -22.4980 H       1  UNL1        0.0234
     87  H          8.9110   12.8810  -20.8160 H       1  UNL1        0.0234
     88  H          7.6060   13.1580  -21.9430 H       1  UNL1        0.0234
     89  H         10.5870   11.0240  -22.5910 H       1  UNL1        0.0234
     90  H          9.8150    9.5360  -22.0990 H       1  UNL1        0.0234
     91  H         10.2100   10.7510  -20.9070 H       1  UNL1        0.0234
     92  H         13.6060    6.2410  -24.8590 H       1  UNL1        0.0336
     93  H         13.5340    6.7000  -27.8280 H       1  UNL1        0.0234
     94  H         14.9590    6.3260  -26.8880 H       1  UNL1        0.0234
     95  H         14.1170    7.8350  -26.6340 H       1  UNL1        0.0234
     96  H         12.4890    4.5120  -27.0470 H       1  UNL1        0.0234
     97  H         12.3750    4.1890  -25.3340 H       1  UNL1        0.0234
     98  H         13.9340    4.1800  -26.1230 H       1  UNL1        0.0234
     99  H         11.3070   10.5420  -27.8030 H       1  UNL1        0.0319
    100  H         12.4730   12.8720  -26.3060 H       1  UNL1        0.0233
    101  H         12.6560   12.5630  -28.0160 H       1  UNL1        0.0233
    102  H         13.3550   11.4650  -26.8510 H       1  UNL1        0.0233
    103  H          9.9460   12.9480  -26.6280 H       1  UNL1        0.0233
    104  H          9.1460   11.5920  -27.3870 H       1  UNL1        0.0233
    105  H         10.1790   12.6380  -28.3320 H       1  UNL1        0.0233
@<TRIPOS>BOND
     1     1    20    1
     2     1    17    1
     3     2    23    1
     4     2    16    1
     5     3    18    1
     6     3    24    1
     7     4    19    2
     8     5    20    2
     9     6    21    2
    10     7    22    2
    11     8    23    2
    12     9    24    2
    13    10    25    1
    14    10    13    1
    15    10    19   am
    16    11    26    1
    17    11    21   am
    18    11    14    1
    19    12    27    1
    20    12    15    1
    21    12    22   am
    22    13    31    1
    23    13    20    1
    24    13    47    1
    25    14    24    1
    26    14    35    1
    27    14    48    1
    28    15    44    1
    29    15    23    1
    30    15    49    1
    31    16    19    1
    32    16    38    1
    33    16    50    1
    34    17    28    1
    35    17    21    1
    36    17    51    1
    37    18    41    1
    38    18    22    1
    39    18    52    1
    40    25    53    1
    41    25    54    1
    42    25    55    1
    43    26    56    1
    44    26    57    1
    45    26    58    1
    46    27    59    1
    47    27    60    1
    48    27    61    1
    49    28    30    1
    50    28    29    1
    51    28    62    1
    52    29    63    1
    53    29    64    1
    54    29    65    1
    55    30    66    1
    56    30    67    1
    57    30    68    1
    58    31    32    1
    59    31    33    1
    60    31    69    1
    61    32    70    1
    62    32    71    1
    63    32    72    1
    64    33    34    1
    65    33    73    1
    66    33    74    1
    67    34    75    1
    68    34    76    1
    69    34    77    1
    70    35    36    1
    71    35    37    1
    72    35    78    1
    73    36    79    1
    74    36    80    1
    75    36    81    1
    76    37    82    1
    77    37    83    1
    78    37    84    1
    79    38    40    1
    80    38    39    1
    81    38    85    1
    82    39    86    1
    83    39    87    1
    84    39    88    1
    85    40    89    1
    86    40    90    1
    87    40    91    1
    88    41    42    1
    89    41    43    1
    90    41    92    1
    91    42    93    1
    92    42    94    1
    93    42    95    1
    94    43    96    1
    95    43    97    1
    96    43    98    1
    97    44    46    1
    98    44    45    1
    99    44    99    1
   100    45   100    1
   101    45   101    1
   102    45   102    1
   103    46   103    1
   104    46   104    1
   105    46   105    1
