@<TRIPOS>MOLECULE
IBP-Site1_1h.pdb
 33 33 0 0 0
SMALL
GASTEIGER

@<TRIPOS>ATOM
      1  C          4.1810  -11.4640    9.4950 C.ar    1  UNL1       -0.0339
      2  C          4.9420  -12.3160    8.7160 C.ar    1  UNL1       -0.0575
      3  C          5.1230  -12.0470    7.3740 C.ar    1  UNL1       -0.0583
      4  C          4.5420  -10.9280    6.8090 C.ar    1  UNL1       -0.0471
      5  C          3.7860  -10.0730    7.5880 C.ar    1  UNL1       -0.0583
      6  C          3.6010  -10.3450    8.9300 C.ar    1  UNL1       -0.0575
      7  C          3.9820  -11.7570   10.9600 C.3     1  UNL1        0.0784
      8  C          2.4910  -11.7020   11.2940 C.3     1  UNL1       -0.0482
      9  C          4.7200  -10.7330   11.7820 C.2     1  UNL1        0.3119
     10  O          4.1360  -10.1130   12.6390 O.2     1  UNL1       -0.2503
     11  O          6.0250  -10.5090   11.5620 O.3     1  UNL1       -0.4802
     12  H          6.4130   -9.6520   11.7880 H       1  UNL1        0.2951
     13  C          4.7400  -10.6350    5.3430 C.3     1  UNL1       -0.0253
     14  C          4.0670  -11.7260    4.5100 C.3     1  UNL1       -0.0427
     15  C          2.6720  -11.2600    4.0890 C.3     1  UNL1       -0.0624
     16  C          4.9070  -12.0080    3.2640 C.3     1  UNL1       -0.0624
     17  H          5.3750  -13.1530    9.1380 H       1  UNL1        0.0621
     18  H          5.6920  -12.6820    6.7930 H       1  UNL1        0.0620
     19  H          3.3600   -9.2320    7.1680 H       1  UNL1        0.0620
     20  H          3.0290   -9.7120    9.5110 H       1  UNL1        0.0621
     21  H          4.3610  -12.7330   11.1830 H       1  UNL1        0.0459
     22  H          2.1110  -10.7270   11.0720 H       1  UNL1        0.0241
     23  H          2.3510  -11.9110   12.3340 H       1  UNL1        0.0241
     24  H          1.9680  -12.4300   10.7100 H       1  UNL1        0.0241
     25  H          5.7870  -10.6120    5.1220 H       1  UNL1        0.0316
     26  H          4.3050   -9.6860    5.1070 H       1  UNL1        0.0316
     27  H          3.9840  -12.6190    5.0940 H       1  UNL1        0.0299
     28  H          2.7550  -10.3670    3.5050 H       1  UNL1        0.0232
     29  H          2.0840  -11.0630    4.9610 H       1  UNL1        0.0232
     30  H          2.2010  -12.0240    3.5070 H       1  UNL1        0.0232
     31  H          4.9900  -11.1150    2.6800 H       1  UNL1        0.0232
     32  H          4.4360  -12.7720    2.6820 H       1  UNL1        0.0232
     33  H          5.8830  -12.3340    3.5580 H       1  UNL1        0.0232
@<TRIPOS>BOND
     1     1     2   ar
     2     1     6   ar
     3     1     7    1
     4     2     3   ar
     5     2    17    1
     6     3     4   ar
     7     3    18    1
     8     4    13    1
     9     4     5   ar
    10     5     6   ar
    11     5    19    1
    12     6    20    1
    13     7     8    1
    14     7     9    1
    15     7    21    1
    16     8    22    1
    17     8    23    1
    18     8    24    1
    19     9    11    1
    20     9    10    2
    21    11    12    1
    22    13    14    1
    23    13    25    1
    24    13    26    1
    25    14    16    1
    26    14    15    1
    27    14    27    1
    28    15    28    1
    29    15    29    1
    30    15    30    1
    31    16    31    1
    32    16    32    1
    33    16    33    1
