Results/Site2/APO/RWF/RWF-Site2_1.pdb
 OpenBabel08312517013D

 39 41  0  0  1  0  0  0  0  0999 V2000
    9.9300   19.2540    9.3840 C   0  0  0  0  0  0  0  0  0  0  0  0
    9.1680   18.6040   11.9500 C   0  0  0  0  0  0  0  0  0  0  0  0
    8.3200   19.4320   11.2000 C   0  0  0  0  0  0  0  0  0  0  0  0
    8.6670   19.7780    9.9240 C   0  0  0  0  0  0  0  0  0  0  0  0
   10.3470   19.5680    8.0890 C   0  0  0  0  0  0  0  0  0  0  0  0
   11.5360   19.0620    7.6140 C   0  0  0  0  0  0  0  0  0  0  0  0
   12.3180   18.2440    8.4160 C   0  0  0  0  0  0  0  0  0  0  0  0
   11.9190   17.9270    9.6970 C   0  0  0  0  0  0  0  0  0  0  0  0
   10.7230   18.4270   10.1950 C   0  0  0  0  0  0  0  0  0  0  0  0
   10.3180   18.1270   11.4470 O   0  0  0  0  0  0  0  0  0  0  0  0
    8.8490   18.3020   13.0860 O   0  0  0  0  0  0  0  0  0  0  0  0
    7.8700   20.5780    9.1780 O   0  0  0  0  0  0  0  0  0  0  0  0
    7.0870   20.0610    8.9530 H   0  0  0  0  0  0  0  0  0  0  0  0
    7.0360   19.9420   11.8000 C   0  0  2  0  0  0  0  0  0  0  0  0
    5.8820   19.6820   10.8300 C   0  0  0  0  0  0  0  0  0  0  0  0
    4.9480   18.6580   11.4220 C   0  0  0  0  0  0  0  0  0  0  0  0
    5.1510   18.1820   12.8370 C   0  0  0  0  0  0  0  0  0  0  0  0
    4.0380   18.2200   10.7630 O   0  0  0  0  0  0  0  0  0  0  0  0
    7.1530   21.4210   12.0560 C   0  0  0  0  0  0  0  0  0  0  0  0
    6.2160   22.2900   11.5290 C   0  0  0  0  0  0  0  0  0  0  0  0
    6.3230   23.6480   11.7650 C   0  0  0  0  0  0  0  0  0  0  0  0
    7.3670   24.1370   12.5260 C   0  0  0  0  0  0  0  0  0  0  0  0
    8.3030   23.2680   13.0530 C   0  0  0  0  0  0  0  0  0  0  0  0
    8.1930   21.9100   12.8220 C   0  0  0  0  0  0  0  0  0  0  0  0
    9.7667   20.1765    7.4907 H   0  0  0  0  0  0  0  0  0  0  0  0
   11.8467   19.2923    6.6572 H   0  0  0  0  0  0  0  0  0  0  0  0
   13.2072   17.8690    8.0502 H   0  0  0  0  0  0  0  0  0  0  0  0
   12.5090   17.3183   10.2856 H   0  0  0  0  0  0  0  0  0  0  0  0
    6.8478   19.4348   12.7232 H   0  0  0  0  0  0  0  0  0  0  0  0
    6.2711   19.3158    9.9030 H   0  0  0  0  0  0  0  0  0  0  0  0
    5.3487   20.5936   10.6582 H   0  0  0  0  0  0  0  0  0  0  0  0
    5.9997   18.6765   13.2614 H   0  0  0  0  0  0  0  0  0  0  0  0
    5.3171   17.1250   12.8374 H   0  0  0  0  0  0  0  0  0  0  0  0
    4.2804   18.4064   13.4172 H   0  0  0  0  0  0  0  0  0  0  0  0
    5.4366   21.9251   10.9594 H   0  0  0  0  0  0  0  0  0  0  0  0
    5.6227   24.2966   11.3725 H   0  0  0  0  0  0  0  0  0  0  0  0
    7.4478   25.1509   12.7008 H   0  0  0  0  0  0  0  0  0  0  0  0
    9.0846   23.6332   13.6194 H   0  0  0  0  0  0  0  0  0  0  0  0
    8.8884   21.2608   13.2221 H   0  0  0  0  0  0  0  0  0  0  0  0
  1  5  2  0  0  0  0
  1  4  1  0  0  0  0
  1  9  1  0  0  0  0
  2  3  1  0  0  0  0
  2 10  1  0  0  0  0
  2 11  2  0  0  0  0
  3  4  2  0  0  0  0
  3 14  1  0  0  0  0
  4 12  1  0  0  0  0
  5  6  1  0  0  0  0
  5 25  1  0  0  0  0
  6  7  2  0  0  0  0
  6 26  1  0  0  0  0
  7  8  1  0  0  0  0
  7 27  1  0  0  0  0
  8  9  2  0  0  0  0
  8 28  1  0  0  0  0
  9 10  1  0  0  0  0
 12 13  1  0  0  0  0
 14 15  1  0  0  0  0
 14 19  1  0  0  0  0
 14 29  1  1  0  0  0
 15 16  1  0  0  0  0
 15 30  1  0  0  0  0
 15 31  1  0  0  0  0
 16 18  2  0  0  0  0
 16 17  1  0  0  0  0
 17 32  1  0  0  0  0
 17 33  1  0  0  0  0
 17 34  1  0  0  0  0
 19 20  2  0  0  0  0
 19 24  1  0  0  0  0
 20 21  1  0  0  0  0
 20 35  1  0  0  0  0
 21 22  2  0  0  0  0
 21 36  1  0  0  0  0
 22 23  1  0  0  0  0
 22 37  1  0  0  0  0
 23 24  2  0  0  0  0
 23 38  1  0  0  0  0
 24 39  1  0  0  0  0
M  END
