@<TRIPOS>MOLECULE
Results/Site2/APO/RWF/RWF-Site2_1.pdb
 39 41 0 0 0
SMALL
GASTEIGER

@<TRIPOS>ATOM
      1  C          9.9300   19.2540    9.3840 C.ar    1  UNL1        0.0593
      2  C          9.1680   18.6040   11.9500 C.ar    1  UNL1        0.3446
      3  C          8.3200   19.4320   11.2000 C.ar    1  UNL1        0.0866
      4  C          8.6670   19.7780    9.9240 C.ar    1  UNL1        0.1381
      5  C         10.3470   19.5680    8.0890 C.ar    1  UNL1       -0.0475
      6  C         11.5360   19.0620    7.6140 C.ar    1  UNL1       -0.0609
      7  C         12.3180   18.2440    8.4160 C.ar    1  UNL1       -0.0582
      8  C         11.9190   17.9270    9.6970 C.ar    1  UNL1       -0.0185
      9  C         10.7230   18.4270   10.1950 C.ar    1  UNL1        0.1426
     10  O         10.3180   18.1270   11.4470 O.2     1  UNL1       -0.4217
     11  O          8.8490   18.3020   13.0860 O.2     1  UNL1       -0.2447
     12  O          7.8700   20.5780    9.1780 O.3     1  UNL1       -0.5055
     13  H          7.0870   20.0610    8.9530 H       1  UNL1        0.2922
     14  C          7.0360   19.9420   11.8000 C.3     1  UNL1        0.0262
     15  C          5.8820   19.6820   10.8300 C.3     1  UNL1        0.0167
     16  C          4.9480   18.6580   11.4220 C.2     1  UNL1        0.1312
     17  C          5.1510   18.1820   12.8370 C.3     1  UNL1       -0.0060
     18  O          4.0380   18.2200   10.7630 O.2     1  UNL1       -0.2977
     19  C          7.1530   21.4210   12.0560 C.ar    1  UNL1       -0.0392
     20  C          6.2160   22.2900   11.5290 C.ar    1  UNL1       -0.0580
     21  C          6.3230   23.6480   11.7650 C.ar    1  UNL1       -0.0615
     22  C          7.3670   24.1370   12.5260 C.ar    1  UNL1       -0.0617
     23  C          8.3030   23.2680   13.0530 C.ar    1  UNL1       -0.0615
     24  C          8.1930   21.9100   12.8220 C.ar    1  UNL1       -0.0580
     25 H           9.7667   20.1765    7.4907 H       1  UNL1        0.0626
     26 H          11.8467   19.2923    6.6572 H       1  UNL1        0.0618
     27 H          13.2072   17.8690    8.0502 H       1  UNL1        0.0619
     28 H          12.5090   17.3183   10.2856 H       1  UNL1        0.0654
     29 H           6.8478   19.4348   12.7232 H       1  UNL1        0.0405
     30 H           6.2711   19.3158    9.9030 H       1  UNL1        0.0351
     31 H           5.3487   20.5936   10.6582 H       1  UNL1        0.0351
     32 H           5.9997   18.6765   13.2614 H       1  UNL1        0.0306
     33 H           5.3171   17.1250   12.8374 H       1  UNL1        0.0306
     34 H           4.2804   18.4064   13.4172 H       1  UNL1        0.0306
     35 H           5.4366   21.9251   10.9594 H       1  UNL1        0.0620
     36 H           5.6227   24.2966   11.3725 H       1  UNL1        0.0618
     37 H           7.4478   25.1509   12.7008 H       1  UNL1        0.0618
     38 H           9.0846   23.6332   13.6194 H       1  UNL1        0.0618
     39 H           8.8884   21.2608   13.2221 H       1  UNL1        0.0620
@<TRIPOS>BOND
     1     1     5   ar
     2     1     4   ar
     3     1     9   ar
     4     2     3   ar
     5     2    10   ar
     6     2    11    2
     7     3     4   ar
     8     3    14    1
     9     4    12    1
    10     5     6   ar
    11     6     7   ar
    12     7     8   ar
    13     8     9   ar
    14     9    10   ar
    15    12    13    1
    16    14    15    1
    17    14    19    1
    18    15    16    1
    19    16    18    2
    20    16    17    1
    21    19    20   ar
    22    19    24   ar
    23    20    21   ar
    24    21    22   ar
    25    22    23   ar
    26    23    24   ar
    27     5    25    1
    28     6    26    1
    29     7    27    1
    30     8    28    1
    31    14    29    1
    32    15    30    1
    33    15    31    1
    34    17    32    1
    35    17    33    1
    36    17    34    1
    37    20    35    1
    38    21    36    1
    39    22    37    1
    40    23    38    1
    41    24    39    1
