@<TRIPOS>MOLECULE
Results/Site1/HOLO/ENB1/ENB1-Site1_1.pdb
  105   105     1     0     0
SMALL
bcc


@<TRIPOS>ATOM
      1 O           13.0760    -3.7570     3.7370 os         1 UNL      -0.404900
      2 O1          12.3600     0.5140     0.8140 os         1 UNL      -0.418900
      3 O2           9.7730    -3.3040    -0.2210 os         1 UNL      -0.441900
      4 O3          14.7260    -1.3650     1.8510 o          1 UNL      -0.569100
      5 O4          11.3250    -2.2660     3.9140 o          1 UNL      -0.558000
      6 O5          13.1080    -3.7230     1.1450 o          1 UNL      -0.572100
      7 O6           9.6730    -0.6370    -2.0610 o          1 UNL      -0.578100
      8 O7          12.1260     2.7490     0.3350 o          1 UNL      -0.552000
      9 O8          10.6800    -3.4110    -2.3340 o          1 UNL      -0.513000
     10 N           13.4120    -0.3830     3.4940 n          1 UNL      -0.473800
     11 N1          11.3280    -5.1610     0.8010 n          1 UNL      -0.461800
     12 N2           9.8280    -0.1170     0.2010 n          1 UNL      -0.462800
     13 C           13.6030    -1.5500     4.3800 c3         1 UNL       0.070700
     14 C1          11.4380    -4.9760    -0.6620 c3         1 UNL       0.056700
     15 C2          10.2540     1.2730    -0.0650 c3         1 UNL       0.062700
     16 C3          13.7150     0.7210     1.2600 c3         1 UNL       0.083100
     17 C4          12.2280    -4.7500     3.1190 c3         1 UNL       0.085100
     18 C5           8.8100    -2.2840    -0.5420 c3         1 UNL       0.107100
     19 C6          14.0020    -0.4320     2.2180 c          1 UNL       0.666100
     20 C7          12.5150    -2.5400     4.0010 c          1 UNL       0.618100
     21 C8          12.2610    -4.4940     1.6100 c          1 UNL       0.636100
     22 C9           9.4830    -0.9450    -0.8810 c          1 UNL       0.644100
     23 C10         11.6710     1.6100     0.3910 c          1 UNL       0.629100
     24 C11         10.6060    -3.8020    -1.1730 c          1 UNL       0.619100
     25 C12         12.5920     0.7270     3.9890 c3         1 UNL       0.071300
     26 C13         10.2350    -5.9940     1.3070 c3         1 UNL       0.076300
     27 C14          9.6120    -0.5040     1.5960 c3         1 UNL       0.069300
     28 C15         12.8310    -6.1080     3.4470 c3         1 UNL      -0.056700
     29 C16         14.2090    -5.9470     4.0860 c3         1 UNL      -0.094600
     30 C17         11.9040    -6.9020     4.3670 c3         1 UNL      -0.094600
     31 C18         13.5580    -1.2650     5.8780 c3         1 UNL      -0.065700
     32 C19         13.5940    -2.5810     6.6580 c3         1 UNL      -0.100100
     33 C20         14.7110    -0.3230     6.2680 c3         1 UNL      -0.079400
     34 C21         14.3490     0.6650     7.3680 c3         1 UNL      -0.094100
     35 C22         11.1050    -6.2320    -1.4670 c3         1 UNL      -0.064700
     36 C23          9.8580    -6.0120    -2.3200 c3         1 UNL      -0.106350
     37 C24         12.2880    -6.6400    -2.3450 c3         1 UNL      -0.106350
     38 C25         14.6400     0.6890     0.0460 c3         1 UNL      -0.070700
     39 C26         15.0720     2.1030    -0.3400 c3         1 UNL      -0.095600
     40 C27         13.9570    -0.0010    -1.1340 c3         1 UNL      -0.095600
     41 C28          7.8330    -2.7440    -1.6230 c3         1 UNL      -0.088700
     42 C29          6.8010    -1.6570    -1.9120 c3         1 UNL      -0.094100
     43 C30          7.1440    -4.0410    -1.2070 c3         1 UNL      -0.094100
     44 C31          9.2540     2.2800     0.5050 c3         1 UNL      -0.064700
     45 C32          8.8550     3.2980    -0.5600 c3         1 UNL      -0.106350
     46 C33          9.8400     2.9800     1.7280 c3         1 UNL      -0.106350
     47 H           14.5960    -1.9190     4.2290 h1         1 UNL       0.128700
     48 H1          12.4730    -4.7560    -0.8200 h1         1 UNL       0.129700
     49 H2          10.2710     1.3500    -1.1320 h1         1 UNL       0.129700
     50 H3          13.8640     1.6620     1.7480 h1         1 UNL       0.096700
     51 H4          11.2160    -4.7120     3.4640 h1         1 UNL       0.089700
     52 H5           8.2260    -2.1110     0.3380 h1         1 UNL       0.085700
     53 H6          12.5440     1.4940     3.2450 h1         1 UNL       0.048367
     54 H7          13.0290     1.1230     4.8820 h1         1 UNL       0.048367
     55 H8          11.6050     0.3740     4.2020 h1         1 UNL       0.048367
     56 H9           9.6730    -6.3840     0.4840 h1         1 UNL       0.046700
     57 H10          9.5950    -5.4030     1.9280 h1         1 UNL       0.046700
     58 H11         10.6390    -6.8030     1.8790 h1         1 UNL       0.046700
     59 H12          9.3090    -1.5290     1.6390 h1         1 UNL       0.053033
     60 H13          8.8480     0.1120     2.0230 h1         1 UNL       0.053033
     61 H14         10.5210    -0.3770     2.1460 h1         1 UNL       0.053033
     62 H15         12.9450    -6.6520     2.5330 hc         1 UNL       0.056700
     63 H16         14.1160    -5.4050     5.0040 hc         1 UNL       0.044700
     64 H17         14.8510    -5.4110     3.4190 hc         1 UNL       0.044700
     65 H18         14.6260    -6.9130     4.2830 hc         1 UNL       0.044700
     66 H19         11.7770    -6.3730     5.2880 hc         1 UNL       0.044700
     67 H20         12.3330    -7.8620     4.5630 hc         1 UNL       0.044700
     68 H21         10.9530    -7.0260     3.8930 hc         1 UNL       0.044700
     69 H22         12.6430    -0.7690     6.1280 hc         1 UNL       0.061700
     70 H23         14.4990    -3.1050     6.4320 hc         1 UNL       0.044033
     71 H24         12.7540    -3.1830     6.3810 hc         1 UNL       0.044033
     72 H25         13.5540    -2.3750     7.7070 hc         1 UNL       0.044033
     73 H26         15.0040     0.2300     5.4000 hc         1 UNL       0.051700
     74 H27         15.5020    -0.9370     6.6470 hc         1 UNL       0.051700
     75 H28         13.5580     1.3020     7.0300 hc         1 UNL       0.034700
     76 H29         15.2060     1.2590     7.6100 hc         1 UNL       0.034700
     77 H30         14.0290     0.1290     8.2370 hc         1 UNL       0.034700
     78 H31         10.9060    -7.0260    -0.7780 hc         1 UNL       0.063200
     79 H32         10.0380    -5.2200    -3.0170 hc         1 UNL       0.045783
     80 H33          9.0350    -5.7510    -1.6880 hc         1 UNL       0.045783
     81 H34          9.6270    -6.9110    -2.8530 hc         1 UNL       0.045783
     82 H35         12.5020    -5.8570    -3.0420 hc         1 UNL       0.045783
     83 H36         12.0440    -7.5350    -2.8780 hc         1 UNL       0.045783
     84 H37         13.1460    -6.8140    -1.7290 hc         1 UNL       0.045783
     85 H38         15.5130     0.1280     0.3060 hc         1 UNL       0.079700
     86 H39         14.2100     2.6800    -0.6040 hc         1 UNL       0.043867
     87 H40         15.7390     2.0570    -1.1750 hc         1 UNL       0.043867
     88 H41         15.5690     2.5630     0.4890 hc         1 UNL       0.043867
     89 H42         13.0800     0.5470    -1.4090 hc         1 UNL       0.043867
     90 H43         13.6820    -0.9970    -0.8550 hc         1 UNL       0.043867
     91 H44         14.6300    -0.0360    -1.9650 hc         1 UNL       0.043867
     92 H45          8.3860    -2.9290    -2.5200 hc         1 UNL       0.103700
     93 H46          6.2360    -1.4570    -1.0260 hc         1 UNL       0.039700
     94 H47          6.1420    -1.9880    -2.6880 hc         1 UNL       0.039700
     95 H48          7.3010    -0.7640    -2.2250 hc         1 UNL       0.039700
     96 H49          6.5840    -3.8760    -0.3100 hc         1 UNL       0.039700
     97 H50          7.8810    -4.7970    -1.0330 hc         1 UNL       0.039700
     98 H51          6.4840    -4.3600    -1.9860 hc         1 UNL       0.039700
     99 H52          8.3750     1.7510     0.8100 hc         1 UNL       0.063200
    100 H53          9.7220     3.8390    -0.8790 hc         1 UNL       0.045783
    101 H54          8.1390     3.9800    -0.1510 hc         1 UNL       0.045783
    102 H55          8.4250     2.7890    -1.3970 hc         1 UNL       0.045783
    103 H56         10.7220     3.5160     1.4440 hc         1 UNL       0.045783
    104 H57         10.0890     2.2510     2.4710 hc         1 UNL       0.045783
    105 H58          9.1200     3.6640     2.1270 hc         1 UNL       0.045783
@<TRIPOS>BOND
     1     1    17 1   
     2     1    20 1   
     3     2    23 1   
     4     2    16 1   
     5     3    24 1   
     6     3    18 1   
     7     4    19 2   
     8     5    20 2   
     9     6    21 2   
    10     7    22 2   
    11     8    23 2   
    12     9    24 2   
    13    10    19 1   
    14    10    25 1   
    15    10    13 1   
    16    11    14 1   
    17    11    26 1   
    18    11    21 1   
    19    12    22 1   
    20    12    15 1   
    21    12    27 1   
    22    13    20 1   
    23    13    31 1   
    24    14    35 1   
    25    14    24 1   
    26    15    23 1   
    27    15    44 1   
    28    16    38 1   
    29    16    19 1   
    30    17    21 1   
    31    17    28 1   
    32    18    41 1   
    33    18    22 1   
    34    28    29 1   
    35    28    30 1   
    36    31    33 1   
    37    31    32 1   
    38    33    34 1   
    39    35    37 1   
    40    35    36 1   
    41    38    40 1   
    42    38    39 1   
    43    41    42 1   
    44    41    43 1   
    45    44    45 1   
    46    44    46 1   
    47    13    47 1   
    48    14    48 1   
    49    15    49 1   
    50    16    50 1   
    51    17    51 1   
    52    18    52 1   
    53    25    53 1   
    54    25    54 1   
    55    25    55 1   
    56    26    56 1   
    57    26    57 1   
    58    26    58 1   
    59    27    59 1   
    60    27    60 1   
    61    27    61 1   
    62    28    62 1   
    63    29    63 1   
    64    29    64 1   
    65    29    65 1   
    66    30    66 1   
    67    30    67 1   
    68    30    68 1   
    69    31    69 1   
    70    32    70 1   
    71    32    71 1   
    72    32    72 1   
    73    33    73 1   
    74    33    74 1   
    75    34    75 1   
    76    34    76 1   
    77    34    77 1   
    78    35    78 1   
    79    36    79 1   
    80    36    80 1   
    81    36    81 1   
    82    37    82 1   
    83    37    83 1   
    84    37    84 1   
    85    38    85 1   
    86    39    86 1   
    87    39    87 1   
    88    39    88 1   
    89    40    89 1   
    90    40    90 1   
    91    40    91 1   
    92    41    92 1   
    93    42    93 1   
    94    42    94 1   
    95    42    95 1   
    96    43    96 1   
    97    43    97 1   
    98    43    98 1   
    99    44    99 1   
   100    45   100 1   
   101    45   101 1   
   102    45   102 1   
   103    46   103 1   
   104    46   104 1   
   105    46   105 1   
@<TRIPOS>SUBSTRUCTURE
     1 UNL         1 TEMP              0 ****  ****    0 ROOT
