@<TRIPOS>MOLECULE
Results/Site1/HOLO/ENA/ENA-Site1_1.pdb
  111   111     1     0     0
SMALL
bcc


@<TRIPOS>ATOM
      1 O           12.3210    -2.9900     2.8750 os         1 UNL      -0.424567
      2 O1           9.0870    -1.7050    -0.8210 os         1 UNL      -0.424567
      3 O2          12.1460    -5.4320    -0.3580 os         1 UNL      -0.424567
      4 O3          10.1860    -1.5580     2.5390 o          1 UNL      -0.575767
      5 O4          15.0750    -7.0840     0.4040 o          1 UNL      -0.575767
      6 O5           9.4190    -3.9960     0.4360 o          1 UNL      -0.575767
      7 O6          14.5680    -3.5040     2.9660 o          1 UNL      -0.535000
      8 O7          11.3280    -1.4100    -1.2930 o          1 UNL      -0.535000
      9 O8          12.1190    -7.7330    -0.3420 o          1 UNL      -0.535000
     10 N           11.3590    -0.0850     1.1830 n          1 UNL      -0.462133
     11 N1          13.9620    -6.1060     2.1880 n          1 UNL      -0.462133
     12 N2           9.7400    -5.2910    -1.4630 n          1 UNL      -0.462133
     13 C           10.1970     0.0650     0.2840 c3         1 UNL       0.063033
     14 C1          12.8800    -5.2550     2.7270 c3         1 UNL       0.063033
     15 C2          10.0460    -6.4990    -0.6630 c3         1 UNL       0.063033
     16 C3          12.5610    -1.5680     2.7980 c3         1 UNL       0.093433
     17 C4           9.0300    -2.8830    -1.6480 c3         1 UNL       0.093433
     18 C5          13.5590    -5.3070    -0.1760 c3         1 UNL       0.093433
     19 C6          11.2610    -1.0570     2.1900 c          1 UNL       0.649100
     20 C7          14.2550    -6.2580     0.8230 c          1 UNL       0.649100
     21 C8           9.4160    -4.0990    -0.7970 c          1 UNL       0.649100
     22 C9          13.3940    -3.8320     2.8750 c          1 UNL       0.617433
     23 C10         10.3020    -1.0880    -0.7060 c          1 UNL       0.617433
     24 C11         11.5560    -6.6540    -0.4790 c          1 UNL       0.617433
     25 C12         12.5810     0.6690     0.8960 c3         1 UNL       0.060967
     26 C13         14.7850    -6.8420     3.1480 c3         1 UNL       0.060967
     27 C14          9.8720    -5.4200    -2.9180 c3         1 UNL       0.060967
     28 C15         12.7680    -0.9930     4.1870 c3         1 UNL      -0.070700
     29 C16         11.6340    -0.0350     4.5480 c3         1 UNL      -0.096100
     30 C17         14.1180    -0.2850     4.2820 c3         1 UNL      -0.096100
     31 C18         12.2770    -5.7340     4.0460 c3         1 UNL      -0.061700
     32 C19         12.8280    -4.8950     5.2010 c3         1 UNL      -0.101767
     33 C20         10.7390    -5.6720     4.0430 c3         1 UNL      -0.083733
     34 C21         10.1020    -6.4280     2.8860 c3         1 UNL      -0.098100
     35 C22         10.0860     1.3830    -0.4690 c3         1 UNL      -0.061700
     36 C23          9.8010     1.1120    -1.9490 c3         1 UNL      -0.101767
     37 C24          8.9960     2.3020     0.1110 c3         1 UNL      -0.083733
     38 C25          7.5890     1.9440    -0.3510 c3         1 UNL      -0.098100
     39 C26         14.2100    -5.3770    -1.5590 c3         1 UNL      -0.070700
     40 C27         13.1700    -5.7160    -2.6240 c3         1 UNL      -0.096100
     41 C28         14.9080    -4.0590    -1.8900 c3         1 UNL      -0.096100
     42 C29          7.5940    -3.0190    -2.1340 c3         1 UNL      -0.070700
     43 C30          6.8430    -1.6970    -1.9750 c3         1 UNL      -0.096100
     44 C31          6.8730    -4.1370    -1.3830 c3         1 UNL      -0.096100
     45 C32          9.4170    -7.7740    -1.2230 c3         1 UNL      -0.061700
     46 C33          7.8970    -7.6080    -1.3210 c3         1 UNL      -0.101767
     47 C34          9.9870    -8.1580    -2.6020 c3         1 UNL      -0.083733
     48 C35         10.5960    -9.5510    -2.6390 c3         1 UNL      -0.098100
     49 H            9.3140     0.0570     0.8880 h1         1 UNL       0.121700
     50 H1          12.0790    -5.3110     2.0200 h1         1 UNL       0.121700
     51 H2           9.5950    -6.3530     0.2960 h1         1 UNL       0.121700
     52 H3          13.4320    -1.3010     2.2360 h1         1 UNL       0.086033
     53 H4           9.7000    -2.8170    -2.4800 h1         1 UNL       0.086033
     54 H5          13.7000    -4.3640     0.3080 h1         1 UNL       0.086033
     55 H6          12.4010     1.3460     0.0870 h1         1 UNL       0.053256
     56 H7          13.3630    -0.0090     0.6260 h1         1 UNL       0.053256
     57 H8          12.8720     1.2210     1.7650 h1         1 UNL       0.053256
     58 H9          15.5230    -7.4120     2.6220 h1         1 UNL       0.053256
     59 H10         14.1640    -7.5010     3.7180 h1         1 UNL       0.053256
     60 H11         15.2700    -6.1510     3.8050 h1         1 UNL       0.053256
     61 H12          9.6260    -4.4880    -3.3820 h1         1 UNL       0.053256
     62 H13          9.2070    -6.1810    -3.2700 h1         1 UNL       0.053256
     63 H14         10.8790    -5.6860    -3.1630 h1         1 UNL       0.053256
     64 H15         12.7620    -1.8020     4.8880 hc         1 UNL       0.081700
     65 H16         11.6240     0.7820     3.8570 hc         1 UNL       0.042867
     66 H17         11.7840     0.3380     5.5390 hc         1 UNL       0.042867
     67 H18         10.7000    -0.5540     4.5000 hc         1 UNL       0.042867
     68 H19         14.1440     0.5280     3.5870 hc         1 UNL       0.042867
     69 H20         14.9010    -0.9770     4.0500 hc         1 UNL       0.042867
     70 H21         14.2550     0.0890     5.2750 hc         1 UNL       0.042867
     71 H22         12.5550    -6.7600     4.1720 hc         1 UNL       0.066033
     72 H23         12.5450    -3.8720     5.0660 hc         1 UNL       0.043589
     73 H24         13.8950    -4.9700     5.2190 hc         1 UNL       0.043589
     74 H25         12.4290    -5.2560     6.1260 hc         1 UNL       0.043589
     75 H26         10.4420    -4.6460     3.9810 hc         1 UNL       0.051867
     76 H27         10.4040    -6.1390     4.9460 hc         1 UNL       0.051867
     77 H28         10.4130    -5.9910     1.9600 hc         1 UNL       0.038144
     78 H29          9.0370    -6.3720     2.9670 hc         1 UNL       0.038144
     79 H30         10.4090    -7.4530     2.9170 hc         1 UNL       0.038144
     80 H31         11.0220     1.8910    -0.3610 hc         1 UNL       0.066033
     81 H32          8.8640     0.6040    -2.0450 hc         1 UNL       0.043589
     82 H33         10.5800     0.5020    -2.3560 hc         1 UNL       0.043589
     83 H34          9.7600     2.0400    -2.4800 hc         1 UNL       0.043589
     84 H35          9.2060     3.3070    -0.1900 hc         1 UNL       0.051867
     85 H36          9.0180     2.1830     1.1740 hc         1 UNL       0.051867
     86 H37          7.5250     2.0500    -1.4140 hc         1 UNL       0.038144
     87 H38          6.8830     2.5980     0.1160 hc         1 UNL       0.038144
     88 H39          7.3710     0.9320    -0.0800 hc         1 UNL       0.038144
     89 H40         14.9450    -6.1540    -1.5470 hc         1 UNL       0.081700
     90 H41         12.4240    -4.9490    -2.6510 hc         1 UNL       0.042867
     91 H42         12.7100    -6.6530    -2.3880 hc         1 UNL       0.042867
     92 H43         13.6470    -5.7840    -3.5790 hc         1 UNL       0.042867
     93 H44         14.1880    -3.2680    -1.9070 hc         1 UNL       0.042867
     94 H45         15.3770    -4.1350    -2.8490 hc         1 UNL       0.042867
     95 H46         15.6490    -3.8510    -1.1460 hc         1 UNL       0.042867
     96 H47          7.6170    -3.2720    -3.1740 hc         1 UNL       0.081700
     97 H48          6.8100    -1.4280    -0.9400 hc         1 UNL       0.042867
     98 H49          5.8460    -1.8060    -2.3470 hc         1 UNL       0.042867
     99 H50          7.3480    -0.9320    -2.5270 hc         1 UNL       0.042867
    100 H51          6.8400    -3.9020    -0.3400 hc         1 UNL       0.042867
    101 H52          7.3980    -5.0580    -1.5250 hc         1 UNL       0.042867
    102 H53          5.8760    -4.2330    -1.7580 hc         1 UNL       0.042867
    103 H54          9.6580    -8.5670    -0.5460 hc         1 UNL       0.066033
    104 H55          7.6680    -6.8140    -2.0000 hc         1 UNL       0.043589
    105 H56          7.5000    -7.3770    -0.3540 hc         1 UNL       0.043589
    106 H57          7.4610    -8.5180    -1.6770 hc         1 UNL       0.043589
    107 H58         10.7450    -7.4500    -2.8650 hc         1 UNL       0.051867
    108 H59          9.1700    -8.1530    -3.2930 hc         1 UNL       0.051867
    109 H60         11.4200    -9.5980    -1.9580 hc         1 UNL       0.038144
    110 H61         10.9390    -9.7640    -3.6300 hc         1 UNL       0.038144
    111 H62          9.8570   -10.2710    -2.3550 hc         1 UNL       0.038144
@<TRIPOS>BOND
     1     1    16 1   
     2     1    22 1   
     3     2    17 1   
     4     2    23 1   
     5     3    24 1   
     6     3    18 1   
     7     4    19 2   
     8     5    20 2   
     9     6    21 2   
    10     7    22 2   
    11     8    23 2   
    12     9    24 2   
    13    10    13 1   
    14    10    25 1   
    15    10    19 1   
    16    11    20 1   
    17    11    14 1   
    18    11    26 1   
    19    12    27 1   
    20    12    21 1   
    21    12    15 1   
    22    13    23 1   
    23    13    35 1   
    24    14    22 1   
    25    14    31 1   
    26    15    45 1   
    27    15    24 1   
    28    16    19 1   
    29    16    28 1   
    30    17    42 1   
    31    17    21 1   
    32    18    39 1   
    33    18    20 1   
    34    28    30 1   
    35    28    29 1   
    36    31    33 1   
    37    31    32 1   
    38    33    34 1   
    39    35    36 1   
    40    35    37 1   
    41    37    38 1   
    42    39    40 1   
    43    39    41 1   
    44    42    43 1   
    45    42    44 1   
    46    45    47 1   
    47    45    46 1   
    48    47    48 1   
    49    13    49 1   
    50    14    50 1   
    51    15    51 1   
    52    16    52 1   
    53    17    53 1   
    54    18    54 1   
    55    25    55 1   
    56    25    56 1   
    57    25    57 1   
    58    26    58 1   
    59    26    59 1   
    60    26    60 1   
    61    27    61 1   
    62    27    62 1   
    63    27    63 1   
    64    28    64 1   
    65    29    65 1   
    66    29    66 1   
    67    29    67 1   
    68    30    68 1   
    69    30    69 1   
    70    30    70 1   
    71    31    71 1   
    72    32    72 1   
    73    32    73 1   
    74    32    74 1   
    75    33    75 1   
    76    33    76 1   
    77    34    77 1   
    78    34    78 1   
    79    34    79 1   
    80    35    80 1   
    81    36    81 1   
    82    36    82 1   
    83    36    83 1   
    84    37    84 1   
    85    37    85 1   
    86    38    86 1   
    87    38    87 1   
    88    38    88 1   
    89    39    89 1   
    90    40    90 1   
    91    40    91 1   
    92    40    92 1   
    93    41    93 1   
    94    41    94 1   
    95    41    95 1   
    96    42    96 1   
    97    43    97 1   
    98    43    98 1   
    99    43    99 1   
   100    44   100 1   
   101    44   101 1   
   102    44   102 1   
   103    45   103 1   
   104    46   104 1   
   105    46   105 1   
   106    46   106 1   
   107    47   107 1   
   108    47   108 1   
   109    48   109 1   
   110    48   110 1   
   111    48   111 1   
@<TRIPOS>SUBSTRUCTURE
     1 UNL         1 TEMP              0 ****  ****    0 ROOT
