Results/Site2/APO/ENB1/ENB1-Site2_1.pdb
 OpenBabel08312517013D

105105  0  0  1  0  0  0  0  0999 V2000
    5.6890   25.3360   15.9400 O   0  0  0  0  0  0  0  0  0  0  0  0
    6.5830   21.0540   13.0850 O   0  0  0  0  0  0  0  0  0  0  0  0
    5.5200   20.4550   17.6510 O   0  0  0  0  0  0  0  0  0  0  0  0
    7.9450   23.8620   13.7650 O   0  0  0  0  0  0  0  0  0  0  0  0
    4.0870   23.9130   15.0870 O   0  0  0  0  0  0  0  0  0  0  0  0
    7.3150   23.4320   16.6100 O   0  0  0  0  0  0  0  0  0  0  0  0
    6.3600   17.9570   15.7630 O   0  0  0  0  0  0  0  0  0  0  0  0
    6.5110   19.6620   11.2580 O   0  0  0  0  0  0  0  0  0  0  0  0
    7.5460   19.4340   18.0430 O   0  0  0  0  0  0  0  0  0  0  0  0
    5.8210   23.9610   12.8350 N   0  0  0  0  0  0  0  0  0  0  0  0
    6.2570   22.8060   18.5700 N   0  0  0  0  0  0  0  0  0  0  0  0
    5.0370   19.4930   14.6220 N   0  0  0  0  0  0  0  0  0  0  0  0
    5.5190   25.1930   13.5920 C   0  0  2  0  0  0  0  0  0  0  0  0
    7.2330   21.7130   18.7690 C   0  0  2  0  0  0  0  0  0  0  0  0
    5.4190   18.9600   13.2970 C   0  0  2  0  0  0  0  0  0  0  0  0
    7.3480   22.0290   12.3490 C   0  0  1  0  0  0  0  0  0  0  0  0
    5.4910   24.8300   17.2790 C   0  0  1  0  0  0  0  0  0  0  0  0
    4.8820   19.2830   17.1150 C   0  0  1  0  0  0  0  0  0  0  0  0
    7.0760   23.3600   13.0440 C   0  0  0  0  0  0  0  0  0  0  0  0
    4.9850   24.7310   14.9380 C   0  0  0  0  0  0  0  0  0  0  0  0
    6.4300   23.6320   17.4500 C   0  0  0  0  0  0  0  0  0  0  0  0
    5.5060   18.8500   15.7800 C   0  0  0  0  0  0  0  0  0  0  0  0
    6.2160   19.9230   12.4210 C   0  0  0  0  0  0  0  0  0  0  0  0
    6.8020   20.4080   18.1040 C   0  0  0  0  0  0  0  0  0  0  0  0
    4.7820   23.4290   11.9480 C   0  0  0  0  0  0  0  0  0  0  0  0
    5.1600   22.9290   19.5320 C   0  0  0  0  0  0  0  0  0  0  0  0
    4.0370   20.5620   14.6580 C   0  0  0  0  0  0  0  0  0  0  0  0
    5.8720   25.9510   18.2340 C   0  0  0  0  0  0  0  0  0  0  0  0
    6.4510   27.1400   17.4680 C   0  0  0  0  0  0  0  0  0  0  0  0
    4.6650   26.3860   19.0640 C   0  0  0  0  0  0  0  0  0  0  0  0
    4.5340   26.1540   12.9370 C   0  0  1  0  0  0  0  0  0  0  0  0
    4.1460   27.2550   13.9260 C   0  0  0  0  0  0  0  0  0  0  0  0
    5.1370   26.7210   11.6400 C   0  0  0  0  0  0  0  0  0  0  0  0
    4.2080   27.6710   10.8960 C   0  0  0  0  0  0  0  0  0  0  0  0
    7.5760   21.4540   20.2360 C   0  0  0  0  0  0  0  0  0  0  0  0
    6.7540   20.2900   20.7860 C   0  0  0  0  0  0  0  0  0  0  0  0
    9.0700   21.1780   20.4010 C   0  0  0  0  0  0  0  0  0  0  0  0
    8.8250   21.6470   12.4200 C   0  0  0  0  0  0  0  0  0  0  0  0
    9.2700   20.9710   11.1250 C   0  0  0  0  0  0  0  0  0  0  0  0
    9.0890   20.7350   13.6170 C   0  0  0  0  0  0  0  0  0  0  0  0
    4.8270   18.1470   18.1360 C   0  0  0  0  0  0  0  0  0  0  0  0
    4.1030   16.9360   17.5540 C   0  0  0  0  0  0  0  0  0  0  0  0
    4.1440   18.6140   19.4200 C   0  0  0  0  0  0  0  0  0  0  0  0
    4.2020   18.4290   12.5400 C   0  0  0  0  0  0  0  0  0  0  0  0
    4.0830   16.9170   12.7120 C   0  0  0  0  0  0  0  0  0  0  0  0
    4.2900   18.7980   11.0620 C   0  0  0  0  0  0  0  0  0  0  0  0
    6.4187   25.7686   13.6563 H   0  0  0  0  0  0  0  0  0  0  0  0
    8.1210   22.0656   18.2872 H   0  0  0  0  0  0  0  0  0  0  0  0
    6.0867   18.1525   13.5138 H   0  0  0  0  0  0  0  0  0  0  0  0
    7.0841   22.0846   11.3136 H   0  0  0  0  0  0  0  0  0  0  0  0
    4.4835   24.5229   17.4675 H   0  0  0  0  0  0  0  0  0  0  0  0
    3.8669   19.5451   16.9010 H   0  0  0  0  0  0  0  0  0  0  0  0
    5.1410   22.5414   11.4703 H   0  0  0  0  0  0  0  0  0  0  0  0
    4.5383   24.1599   11.2055 H   0  0  0  0  0  0  0  0  0  0  0  0
    3.9084   23.1974   12.5207 H   0  0  0  0  0  0  0  0  0  0  0  0
    4.5397   23.7579   19.2616 H   0  0  0  0  0  0  0  0  0  0  0  0
    5.5606   23.0879   20.5114 H   0  0  0  0  0  0  0  0  0  0  0  0
    4.5780   22.0311   19.5261 H   0  0  0  0  0  0  0  0  0  0  0  0
    3.8369   20.8969   13.6617 H   0  0  0  0  0  0  0  0  0  0  0  0
    4.4088   21.3787   15.2409 H   0  0  0  0  0  0  0  0  0  0  0  0
    3.1346   20.1916   15.0978 H   0  0  0  0  0  0  0  0  0  0  0  0
    6.6236   25.5809   18.8996 H   0  0  0  0  0  0  0  0  0  0  0  0
    5.7128   27.5248   16.7957 H   0  0  0  0  0  0  0  0  0  0  0  0
    7.3087   26.8228   16.9124 H   0  0  0  0  0  0  0  0  0  0  0  0
    6.7368   27.9048   18.1596 H   0  0  0  0  0  0  0  0  0  0  0  0
    3.9014   26.7597   18.4143 H   0  0  0  0  0  0  0  0  0  0  0  0
    4.9602   27.1551   19.7469 H   0  0  0  0  0  0  0  0  0  0  0  0
    4.2882   25.5478   19.6120 H   0  0  0  0  0  0  0  0  0  0  0  0
    3.6387   25.6319   12.6709 H   0  0  0  0  0  0  0  0  0  0  0  0
    5.0207   27.7996   14.2147 H   0  0  0  0  0  0  0  0  0  0  0  0
    3.6980   26.8147   14.7922 H   0  0  0  0  0  0  0  0  0  0  0  0
    3.4480   27.9207   13.4628 H   0  0  0  0  0  0  0  0  0  0  0  0
    5.3732   25.9031   10.9918 H   0  0  0  0  0  0  0  0  0  0  0  0
    6.0026   27.2850   11.9186 H   0  0  0  0  0  0  0  0  0  0  0  0
    3.3250   27.1455   10.5976 H   0  0  0  0  0  0  0  0  0  0  0  0
    4.7067   28.0516   10.0292 H   0  0  0  0  0  0  0  0  0  0  0  0
    3.9396   28.4834   11.5385 H   0  0  0  0  0  0  0  0  0  0  0  0
    7.3315   22.3331   20.7949 H   0  0  0  0  0  0  0  0  0  0  0  0
    6.9851   19.4001   20.2387 H   0  0  0  0  0  0  0  0  0  0  0  0
    5.7118   20.5102   20.6850 H   0  0  0  0  0  0  0  0  0  0  0  0
    6.9892   20.1442   21.8196 H   0  0  0  0  0  0  0  0  0  0  0  0
    9.3338   20.3008   19.8480 H   0  0  0  0  0  0  0  0  0  0  0  0
    9.2926   21.0272   21.4367 H   0  0  0  0  0  0  0  0  0  0  0  0
    9.6296   22.0128   20.0338 H   0  0  0  0  0  0  0  0  0  0  0  0
    9.3959   22.5432   12.5460 H   0  0  0  0  0  0  0  0  0  0  0  0
    8.7092   20.0711   10.9814 H   0  0  0  0  0  0  0  0  0  0  0  0
   10.3121   20.7360   11.1852 H   0  0  0  0  0  0  0  0  0  0  0  0
    9.1005   21.6322   10.3010 H   0  0  0  0  0  0  0  0  0  0  0  0
    8.5255   19.8319   13.5084 H   0  0  0  0  0  0  0  0  0  0  0  0
    8.7943   21.2333   14.5169 H   0  0  0  0  0  0  0  0  0  0  0  0
   10.1321   20.5011   13.6640 H   0  0  0  0  0  0  0  0  0  0  0  0
    5.8296   17.8577   18.3724 H   0  0  0  0  0  0  0  0  0  0  0  0
    3.0965   17.2053   17.3106 H   0  0  0  0  0  0  0  0  0  0  0  0
    4.0963   16.1445   18.2740 H   0  0  0  0  0  0  0  0  0  0  0  0
    4.6087   16.6093   16.6694 H   0  0  0  0  0  0  0  0  0  0  0  0
    3.1384   18.9079   19.2025 H   0  0  0  0  0  0  0  0  0  0  0  0
    4.6791   19.4469   19.8260 H   0  0  0  0  0  0  0  0  0  0  0  0
    4.1361   17.8144   20.1309 H   0  0  0  0  0  0  0  0  0  0  0  0
    3.3235   18.8834   12.9483 H   0  0  0  0  0  0  0  0  0  0  0  0
    4.9534   16.4426   12.3092 H   0  0  0  0  0  0  0  0  0  0  0  0
    3.2143   16.5665   12.1949 H   0  0  0  0  0  0  0  0  0  0  0  0
    3.9979   16.6820   13.7524 H   0  0  0  0  0  0  0  0  0  0  0  0
    5.1638   18.3522   10.6345 H   0  0  0  0  0  0  0  0  0  0  0  0
    4.3474   19.8618   10.9628 H   0  0  0  0  0  0  0  0  0  0  0  0
    3.4205   18.4387   10.5523 H   0  0  0  0  0  0  0  0  0  0  0  0
  1 20  1  0  0  0  0
  1 17  1  0  0  0  0
  2 16  1  0  0  0  0
  2 23  1  0  0  0  0
  3 18  1  0  0  0  0
  3 24  1  0  0  0  0
  4 19  2  0  0  0  0
  5 20  2  0  0  0  0
  6 21  2  0  0  0  0
  7 22  2  0  0  0  0
  8 23  2  0  0  0  0
  9 24  2  0  0  0  0
 10 25  1  0  0  0  0
 10 19  1  0  0  0  0
 10 13  1  0  0  0  0
 11 21  1  0  0  0  0
 11 14  1  0  0  0  0
 11 26  1  0  0  0  0
 12 15  1  0  0  0  0
 12 27  1  0  0  0  0
 12 22  1  0  0  0  0
 13 31  1  0  0  0  0
 13 20  1  0  0  0  0
 13 47  1  1  0  0  0
 14 24  1  0  0  0  0
 14 35  1  0  0  0  0
 14 48  1  6  0  0  0
 15 23  1  0  0  0  0
 15 44  1  0  0  0  0
 15 49  1  1  0  0  0
 16 38  1  0  0  0  0
 16 19  1  0  0  0  0
 16 50  1  6  0  0  0
 17 21  1  0  0  0  0
 17 28  1  0  0  0  0
 17 51  1  1  0  0  0
 18 22  1  0  0  0  0
 18 41  1  0  0  0  0
 18 52  1  6  0  0  0
 25 53  1  0  0  0  0
 25 54  1  0  0  0  0
 25 55  1  0  0  0  0
 26 56  1  0  0  0  0
 26 57  1  0  0  0  0
 26 58  1  0  0  0  0
 27 59  1  0  0  0  0
 27 60  1  0  0  0  0
 27 61  1  0  0  0  0
 28 29  1  0  0  0  0
 28 30  1  0  0  0  0
 28 62  1  0  0  0  0
 29 63  1  0  0  0  0
 29 64  1  0  0  0  0
 29 65  1  0  0  0  0
 30 66  1  0  0  0  0
 30 67  1  0  0  0  0
 30 68  1  0  0  0  0
 31 33  1  0  0  0  0
 31 32  1  0  0  0  0
 31 69  1  6  0  0  0
 32 70  1  0  0  0  0
 32 71  1  0  0  0  0
 32 72  1  0  0  0  0
 33 34  1  0  0  0  0
 33 73  1  0  0  0  0
 33 74  1  0  0  0  0
 34 75  1  0  0  0  0
 34 76  1  0  0  0  0
 34 77  1  0  0  0  0
 35 37  1  0  0  0  0
 35 36  1  0  0  0  0
 35 78  1  0  0  0  0
 36 79  1  0  0  0  0
 36 80  1  0  0  0  0
 36 81  1  0  0  0  0
 37 82  1  0  0  0  0
 37 83  1  0  0  0  0
 37 84  1  0  0  0  0
 38 39  1  0  0  0  0
 38 40  1  0  0  0  0
 38 85  1  0  0  0  0
 39 86  1  0  0  0  0
 39 87  1  0  0  0  0
 39 88  1  0  0  0  0
 40 89  1  0  0  0  0
 40 90  1  0  0  0  0
 40 91  1  0  0  0  0
 41 42  1  0  0  0  0
 41 43  1  0  0  0  0
 41 92  1  0  0  0  0
 42 93  1  0  0  0  0
 42 94  1  0  0  0  0
 42 95  1  0  0  0  0
 43 96  1  0  0  0  0
 43 97  1  0  0  0  0
 43 98  1  0  0  0  0
 44 46  1  0  0  0  0
 44 45  1  0  0  0  0
 44 99  1  0  0  0  0
 45100  1  0  0  0  0
 45101  1  0  0  0  0
 45102  1  0  0  0  0
 46103  1  0  0  0  0
 46104  1  0  0  0  0
 46105  1  0  0  0  0
M  END
