@<TRIPOS>MOLECULE
Results/Site2/APO/ENB1/ENB1-Site2_1.pdb
 105 105 0 0 0
SMALL
GASTEIGER

@<TRIPOS>ATOM
      1  O          5.6890   25.3360   15.9400 O.3     1  UNL1       -0.4503
      2  O          6.5830   21.0540   13.0850 O.3     1  UNL1       -0.4503
      3  O          5.5200   20.4550   17.6510 O.3     1  UNL1       -0.4503
      4  O          7.9450   23.8620   13.7650 O.2     1  UNL1       -0.2715
      5  O          4.0870   23.9130   15.0870 O.2     1  UNL1       -0.2487
      6  O          7.3150   23.4320   16.6100 O.2     1  UNL1       -0.2715
      7  O          6.3600   17.9570   15.7630 O.2     1  UNL1       -0.2715
      8  O          6.5110   19.6620   11.2580 O.2     1  UNL1       -0.2487
      9  O          7.5460   19.4340   18.0430 O.2     1  UNL1       -0.2487
     10  N          5.8210   23.9610   12.8350 N.am    1  UNL1       -0.2878
     11  N          6.2570   22.8060   18.5700 N.am    1  UNL1       -0.2878
     12  N          5.0370   19.4930   14.6220 N.am    1  UNL1       -0.2878
     13  C          5.5190   25.1930   13.5920 C.3     1  UNL1        0.1253
     14  C          7.2330   21.7130   18.7690 C.3     1  UNL1        0.1250
     15  C          5.4190   18.9600   13.2970 C.3     1  UNL1        0.1250
     16  C          7.3480   22.0290   12.3490 C.3     1  UNL1        0.1808
     17  C          5.4910   24.8300   17.2790 C.3     1  UNL1        0.1808
     18  C          4.8820   19.2830   17.1150 C.3     1  UNL1        0.1808
     19  C          7.0760   23.3600   13.0440 C.2     1  UNL1        0.2571
     20  C          4.9850   24.7310   14.9380 C.2     1  UNL1        0.3288
     21  C          6.4300   23.6320   17.4500 C.2     1  UNL1        0.2571
     22  C          5.5060   18.8500   15.7800 C.2     1  UNL1        0.2571
     23  C          6.2160   19.9230   12.4210 C.2     1  UNL1        0.3288
     24  C          6.8020   20.4080   18.1040 C.2     1  UNL1        0.3288
     25  C          4.7820   23.4290   11.9480 C.3     1  UNL1        0.0041
     26  C          5.1600   22.9290   19.5320 C.3     1  UNL1        0.0041
     27  C          4.0370   20.5620   14.6580 C.3     1  UNL1        0.0041
     28  C          5.8720   25.9510   18.2340 C.3     1  UNL1       -0.0008
     29  C          6.4510   27.1400   17.4680 C.3     1  UNL1       -0.0588
     30  C          4.6650   26.3860   19.0640 C.3     1  UNL1       -0.0588
     31  C          4.5340   26.1540   12.9370 C.3     1  UNL1       -0.0151
     32  C          4.1460   27.2550   13.9260 C.3     1  UNL1       -0.0602
     33  C          5.1370   26.7210   11.6400 C.3     1  UNL1       -0.0511
     34  C          4.2080   27.6710   10.8960 C.3     1  UNL1       -0.0650
     35  C          7.5760   21.4540   20.2360 C.3     1  UNL1       -0.0177
     36  C          6.7540   20.2900   20.7860 C.3     1  UNL1       -0.0605
     37  C          9.0700   21.1780   20.4010 C.3     1  UNL1       -0.0605
     38  C          8.8250   21.6470   12.4200 C.3     1  UNL1       -0.0008
     39  C          9.2700   20.9710   11.1250 C.3     1  UNL1       -0.0588
     40  C          9.0890   20.7350   13.6170 C.3     1  UNL1       -0.0588
     41  C          4.8270   18.1470   18.1360 C.3     1  UNL1       -0.0008
     42  C          4.1030   16.9360   17.5540 C.3     1  UNL1       -0.0588
     43  C          4.1440   18.6140   19.4200 C.3     1  UNL1       -0.0588
     44  C          4.2020   18.4290   12.5400 C.3     1  UNL1       -0.0177
     45  C          4.0830   16.9170   12.7120 C.3     1  UNL1       -0.0605
     46  C          4.2900   18.7980   11.0620 C.3     1  UNL1       -0.0605
     47 H           6.4187   25.7686   13.6563 H       1  UNL1        0.0619
     48 H           8.1210   22.0656   18.2872 H       1  UNL1        0.0619
     49 H           6.0867   18.1525   13.5138 H       1  UNL1        0.0619
     50 H           7.0841   22.0846   11.3136 H       1  UNL1        0.0835
     51 H           4.4835   24.5229   17.4675 H       1  UNL1        0.0835
     52 H           3.8669   19.5451   16.9010 H       1  UNL1        0.0835
     53 H           5.1410   22.5414   11.4703 H       1  UNL1        0.0429
     54 H           4.5383   24.1599   11.2055 H       1  UNL1        0.0429
     55 H           3.9084   23.1974   12.5207 H       1  UNL1        0.0429
     56 H           4.5397   23.7579   19.2616 H       1  UNL1        0.0429
     57 H           5.5606   23.0879   20.5114 H       1  UNL1        0.0429
     58 H           4.5780   22.0311   19.5261 H       1  UNL1        0.0429
     59 H           3.8369   20.8969   13.6617 H       1  UNL1        0.0429
     60 H           4.4088   21.3787   15.2409 H       1  UNL1        0.0429
     61 H           3.1346   20.1916   15.0978 H       1  UNL1        0.0429
     62 H           6.6236   25.5809   18.8996 H       1  UNL1        0.0336
     63 H           5.7128   27.5248   16.7957 H       1  UNL1        0.0234
     64 H           7.3087   26.8228   16.9124 H       1  UNL1        0.0234
     65 H           6.7368   27.9048   18.1596 H       1  UNL1        0.0234
     66 H           3.9014   26.7597   18.4143 H       1  UNL1        0.0234
     67 H           4.9602   27.1551   19.7469 H       1  UNL1        0.0234
     68 H           4.2882   25.5478   19.6120 H       1  UNL1        0.0234
     69 H           3.6387   25.6319   12.6709 H       1  UNL1        0.0321
     70 H           5.0207   27.7996   14.2147 H       1  UNL1        0.0233
     71 H           3.6980   26.8147   14.7922 H       1  UNL1        0.0233
     72 H           3.4480   27.9207   13.4628 H       1  UNL1        0.0233
     73 H           5.3732   25.9031   10.9918 H       1  UNL1        0.0266
     74 H           6.0026   27.2850   11.9186 H       1  UNL1        0.0266
     75 H           3.3250   27.1455   10.5976 H       1  UNL1        0.0230
     76 H           4.7067   28.0516   10.0292 H       1  UNL1        0.0230
     77 H           3.9396   28.4834   11.5385 H       1  UNL1        0.0230
     78 H           7.3315   22.3331   20.7949 H       1  UNL1        0.0319
     79 H           6.9851   19.4001   20.2387 H       1  UNL1        0.0233
     80 H           5.7118   20.5102   20.6850 H       1  UNL1        0.0233
     81 H           6.9892   20.1442   21.8196 H       1  UNL1        0.0233
     82 H           9.3338   20.3008   19.8480 H       1  UNL1        0.0233
     83 H           9.2926   21.0272   21.4367 H       1  UNL1        0.0233
     84 H           9.6296   22.0128   20.0338 H       1  UNL1        0.0233
     85 H           9.3959   22.5432   12.5460 H       1  UNL1        0.0336
     86 H           8.7092   20.0711   10.9814 H       1  UNL1        0.0234
     87 H          10.3121   20.7360   11.1852 H       1  UNL1        0.0234
     88 H           9.1005   21.6322   10.3010 H       1  UNL1        0.0234
     89 H           8.5255   19.8319   13.5084 H       1  UNL1        0.0234
     90 H           8.7943   21.2333   14.5169 H       1  UNL1        0.0234
     91 H          10.1321   20.5011   13.6640 H       1  UNL1        0.0234
     92 H           5.8296   17.8577   18.3724 H       1  UNL1        0.0336
     93 H           3.0965   17.2053   17.3106 H       1  UNL1        0.0234
     94 H           4.0963   16.1445   18.2740 H       1  UNL1        0.0234
     95 H           4.6087   16.6093   16.6694 H       1  UNL1        0.0234
     96 H           3.1384   18.9079   19.2025 H       1  UNL1        0.0234
     97 H           4.6791   19.4469   19.8260 H       1  UNL1        0.0234
     98 H           4.1361   17.8144   20.1309 H       1  UNL1        0.0234
     99 H           3.3235   18.8834   12.9483 H       1  UNL1        0.0319
    100 H           4.9534   16.4426   12.3092 H       1  UNL1        0.0233
    101 H           3.2143   16.5665   12.1949 H       1  UNL1        0.0233
    102 H           3.9979   16.6820   13.7524 H       1  UNL1        0.0233
    103 H           5.1638   18.3522   10.6345 H       1  UNL1        0.0233
    104 H           4.3474   19.8618   10.9628 H       1  UNL1        0.0233
    105 H           3.4205   18.4387   10.5523 H       1  UNL1        0.0233
@<TRIPOS>BOND
     1     1    20    1
     2     1    17    1
     3     2    16    1
     4     2    23    1
     5     3    18    1
     6     3    24    1
     7     4    19    2
     8     5    20    2
     9     6    21    2
    10     7    22    2
    11     8    23    2
    12     9    24    2
    13    10    25    1
    14    10    19   am
    15    10    13    1
    16    11    21   am
    17    11    14    1
    18    11    26    1
    19    12    15    1
    20    12    27    1
    21    12    22   am
    22    13    31    1
    23    13    20    1
    24    14    24    1
    25    14    35    1
    26    15    23    1
    27    15    44    1
    28    16    38    1
    29    16    19    1
    30    17    21    1
    31    17    28    1
    32    18    22    1
    33    18    41    1
    34    28    29    1
    35    28    30    1
    36    31    33    1
    37    31    32    1
    38    33    34    1
    39    35    37    1
    40    35    36    1
    41    38    39    1
    42    38    40    1
    43    41    42    1
    44    41    43    1
    45    44    46    1
    46    44    45    1
    47    13    47    1
    48    14    48    1
    49    15    49    1
    50    16    50    1
    51    17    51    1
    52    18    52    1
    53    25    53    1
    54    25    54    1
    55    25    55    1
    56    26    56    1
    57    26    57    1
    58    26    58    1
    59    27    59    1
    60    27    60    1
    61    27    61    1
    62    28    62    1
    63    29    63    1
    64    29    64    1
    65    29    65    1
    66    30    66    1
    67    30    67    1
    68    30    68    1
    69    31    69    1
    70    32    70    1
    71    32    71    1
    72    32    72    1
    73    33    73    1
    74    33    74    1
    75    34    75    1
    76    34    76    1
    77    34    77    1
    78    35    78    1
    79    36    79    1
    80    36    80    1
    81    36    81    1
    82    37    82    1
    83    37    83    1
    84    37    84    1
    85    38    85    1
    86    39    86    1
    87    39    87    1
    88    39    88    1
    89    40    89    1
    90    40    90    1
    91    40    91    1
    92    41    92    1
    93    42    93    1
    94    42    94    1
    95    42    95    1
    96    43    96    1
    97    43    97    1
    98    43    98    1
    99    44    99    1
   100    45   100    1
   101    45   101    1
   102    45   102    1
   103    46   103    1
   104    46   104    1
   105    46   105    1
