Results/Site2/APO/ENA/ENA-Site2_1.pdb
 OpenBabel08312517013D

111111  0  0  1  0  0  0  0  0999 V2000
    5.6690   25.0250   18.3310 O   0  0  0  0  0  0  0  0  0  0  0  0
    4.7420   24.7920   13.3450 O   0  0  0  0  0  0  0  0  0  0  0  0
    7.0170   21.7520   16.3520 O   0  0  0  0  0  0  0  0  0  0  0  0
    4.0400   26.0320   16.5830 O   0  0  0  0  0  0  0  0  0  0  0  0
    9.1160   20.7540   18.8980 O   0  0  0  0  0  0  0  0  0  0  0  0
    4.3160   23.0170   15.2450 O   0  0  0  0  0  0  0  0  0  0  0  0
    7.5530   24.8320   19.6460 O   0  0  0  0  0  0  0  0  0  0  0  0
    6.9330   25.2050   13.9460 O   0  0  0  0  0  0  0  0  0  0  0  0
    6.8930   19.5670   17.0640 O   0  0  0  0  0  0  0  0  0  0  0  0
    5.7880   27.1810   15.5810 N   0  0  0  0  0  0  0  0  0  0  0  0
    7.3070   22.0630   19.5230 N   0  0  0  0  0  0  0  0  0  0  0  0
    5.4810   21.2780   14.2430 N   0  0  0  0  0  0  0  0  0  0  0  0
    5.2310   26.9250   14.2380 C   0  0  2  0  0  0  0  0  0  0  0  0
    6.1360   22.8970   19.1790 C   0  0  2  0  0  0  0  0  0  0  0  0
    5.3020   20.3980   15.4210 C   0  0  2  0  0  0  0  0  0  0  0  0
    5.9730   26.3820   17.9420 C   0  0  1  0  0  0  0  0  0  0  0  0
    5.0550   23.4270   13.0040 C   0  0  1  0  0  0  0  0  0  0  0  0
    8.1590   22.0920   17.1430 C   0  0  1  0  0  0  0  0  0  0  0  0
    5.1660   26.5360   16.6600 C   0  0  0  0  0  0  0  0  0  0  0  0
    8.2300   21.5610   18.5920 C   0  0  0  0  0  0  0  0  0  0  0  0
    4.9190   22.5640   14.2640 C   0  0  0  0  0  0  0  0  0  0  0  0
    6.5660   24.3530   19.1080 C   0  0  0  0  0  0  0  0  0  0  0  0
    5.7650   25.5570   13.8330 C   0  0  0  0  0  0  0  0  0  0  0  0
    6.5160   20.4850   16.3470 C   0  0  0  0  0  0  0  0  0  0  0  0
    7.0220   27.9610   15.7000 C   0  0  0  0  0  0  0  0  0  0  0  0
    7.5170   21.7390   20.9340 C   0  0  0  0  0  0  0  0  0  0  0  0
    6.3110   20.7520   13.1540 C   0  0  0  0  0  0  0  0  0  0  0  0
    5.4880   27.3530   19.0030 C   0  0  0  0  0  0  0  0  0  0  0  0
    4.2880   28.1500   18.4960 C   0  0  0  0  0  0  0  0  0  0  0  0
    6.6150   28.2940   19.4270 C   0  0  0  0  0  0  0  0  0  0  0  0
    4.9400   22.7500   20.1190 C   0  0  1  0  0  0  0  0  0  0  0  0
    4.0890   24.0210   20.0750 C   0  0  0  0  0  0  0  0  0  0  0  0
    4.0710   21.5280   19.7730 C   0  0  0  0  0  0  0  0  0  0  0  0
    4.0750   20.4540   20.8510 C   0  0  0  0  0  0  0  0  0  0  0  0
    5.5600   27.9460   13.1580 C   0  0  1  0  0  0  0  0  0  0  0  0
    6.7930   27.4920   12.3720 C   0  0  0  0  0  0  0  0  0  0  0  0
    4.3850   28.1810   12.1920 C   0  0  0  0  0  0  0  0  0  0  0  0
    4.8230   28.5360   10.7770 C   0  0  0  0  0  0  0  0  0  0  0  0
    9.4050   21.7050   16.3440 C   0  0  0  0  0  0  0  0  0  0  0  0
    9.3640   22.3270   14.9510 C   0  0  0  0  0  0  0  0  0  0  0  0
   10.6710   22.1320   17.0850 C   0  0  0  0  0  0  0  0  0  0  0  0
    4.0430   22.9860   11.9560 C   0  0  0  0  0  0  0  0  0  0  0  0
    4.3380   21.5620   11.4850 C   0  0  0  0  0  0  0  0  0  0  0  0
    4.0380   23.9510   10.7710 C   0  0  0  0  0  0  0  0  0  0  0  0
    4.9820   18.9500   15.0540 C   0  0  1  0  0  0  0  0  0  0  0  0
    4.2970   18.2500   16.2330 C   0  0  0  0  0  0  0  0  0  0  0  0
    4.0930   18.8410   13.8000 C   0  0  0  0  0  0  0  0  0  0  0  0
    4.0380   17.4370   13.2170 C   0  0  0  0  0  0  0  0  0  0  0  0
    4.1653   26.9858   14.3121 H   0  0  0  0  0  0  0  0  0  0  0  0
    5.7895   22.5444   18.2300 H   0  0  0  0  0  0  0  0  0  0  0  0
    4.4423   20.7599   15.9452 H   0  0  0  0  0  0  0  0  0  0  0  0
    7.0175   26.5780   17.8174 H   0  0  0  0  0  0  0  0  0  0  0  0
    6.0508   23.3301   12.6246 H   0  0  0  0  0  0  0  0  0  0  0  0
    8.0809   23.1450   17.3164 H   0  0  0  0  0  0  0  0  0  0  0  0
    7.2922   28.3497   14.7404 H   0  0  0  0  0  0  0  0  0  0  0  0
    7.8075   27.3324   16.0642 H   0  0  0  0  0  0  0  0  0  0  0  0
    6.8677   28.7707   16.3823 H   0  0  0  0  0  0  0  0  0  0  0  0
    8.3942   21.1346   21.0344 H   0  0  0  0  0  0  0  0  0  0  0  0
    6.6696   21.2025   21.3067 H   0  0  0  0  0  0  0  0  0  0  0  0
    7.6408   22.6430   21.4929 H   0  0  0  0  0  0  0  0  0  0  0  0
    6.3647   21.4738   12.3659 H   0  0  0  0  0  0  0  0  0  0  0  0
    5.8780   19.8476   12.7804 H   0  0  0  0  0  0  0  0  0  0  0  0
    7.2957   20.5509   13.5212 H   0  0  0  0  0  0  0  0  0  0  0  0
    5.1802   26.7881   19.8580 H   0  0  0  0  0  0  0  0  0  0  0  0
    4.5764   28.7227   17.6394 H   0  0  0  0  0  0  0  0  0  0  0  0
    3.9459   28.8087   19.2667 H   0  0  0  0  0  0  0  0  0  0  0  0
    3.5009   27.4770   18.2267 H   0  0  0  0  0  0  0  0  0  0  0  0
    6.9364   28.8684   18.5834 H   0  0  0  0  0  0  0  0  0  0  0  0
    7.4367   27.7202   19.8018 H   0  0  0  0  0  0  0  0  0  0  0  0
    6.2610   28.9523   20.1927 H   0  0  0  0  0  0  0  0  0  0  0  0
    5.3244   22.5992   21.1061 H   0  0  0  0  0  0  0  0  0  0  0  0
    3.7099   24.1623   19.0844 H   0  0  0  0  0  0  0  0  0  0  0  0
    4.6900   24.8624   20.3503 H   0  0  0  0  0  0  0  0  0  0  0  0
    3.2720   23.9271   20.7595 H   0  0  0  0  0  0  0  0  0  0  0  0
    4.4385   21.0975   18.8650 H   0  0  0  0  0  0  0  0  0  0  0  0
    3.0633   21.8754   19.6794 H   0  0  0  0  0  0  0  0  0  0  0  0
    5.0690   20.0783   20.9765 H   0  0  0  0  0  0  0  0  0  0  0  0
    3.4256   19.6547   20.5606 H   0  0  0  0  0  0  0  0  0  0  0  0
    3.7332   20.8738   21.7740 H   0  0  0  0  0  0  0  0  0  0  0  0
    5.7587   28.8751   13.6501 H   0  0  0  0  0  0  0  0  0  0  0  0
    6.5830   26.5629   11.8845 H   0  0  0  0  0  0  0  0  0  0  0  0
    7.6167   27.3645   13.0430 H   0  0  0  0  0  0  0  0  0  0  0  0
    7.0410   28.2312   11.6392 H   0  0  0  0  0  0  0  0  0  0  0  0
    3.7885   28.9834   12.5732 H   0  0  0  0  0  0  0  0  0  0  0  0
    3.8392   27.2627   12.1313 H   0  0  0  0  0  0  0  0  0  0  0  0
    5.3747   29.4526   10.7938 H   0  0  0  0  0  0  0  0  0  0  0  0
    3.9601   28.6505   10.1547 H   0  0  0  0  0  0  0  0  0  0  0  0
    5.4418   27.7543   10.3885 H   0  0  0  0  0  0  0  0  0  0  0  0
    9.4193   20.6405   16.2370 H   0  0  0  0  0  0  0  0  0  0  0  0
    9.3492   23.3934   15.0369 H   0  0  0  0  0  0  0  0  0  0  0  0
    8.4837   21.9981   14.4393 H   0  0  0  0  0  0  0  0  0  0  0  0
   10.2304   22.0255   14.4001 H   0  0  0  0  0  0  0  0  0  0  0  0
   10.6744   23.1956   17.2016 H   0  0  0  0  0  0  0  0  0  0  0  0
   11.5311   21.8320   16.5237 H   0  0  0  0  0  0  0  0  0  0  0  0
   10.6941   21.6675   18.0486 H   0  0  0  0  0  0  0  0  0  0  0  0
    3.0718   22.9978   12.4049 H   0  0  0  0  0  0  0  0  0  0  0  0
    5.3069   21.5296   11.0322 H   0  0  0  0  0  0  0  0  0  0  0  0
    3.6001   21.2627   10.7702 H   0  0  0  0  0  0  0  0  0  0  0  0
    4.3134   20.8969   12.3228 H   0  0  0  0  0  0  0  0  0  0  0  0
    5.0028   23.9528   10.3084 H   0  0  0  0  0  0  0  0  0  0  0  0
    3.8056   24.9372   11.1151 H   0  0  0  0  0  0  0  0  0  0  0  0
    3.3020   23.6387   10.0598 H   0  0  0  0  0  0  0  0  0  0  0  0
    5.9118   18.4700   14.8306 H   0  0  0  0  0  0  0  0  0  0  0  0
    3.3692   18.7380   16.4473 H   0  0  0  0  0  0  0  0  0  0  0  0
    4.9316   18.2968   17.0932 H   0  0  0  0  0  0  0  0  0  0  0  0
    4.1120   17.2266   15.9815 H   0  0  0  0  0  0  0  0  0  0  0  0
    4.4780   19.5033   13.0530 H   0  0  0  0  0  0  0  0  0  0  0  0
    3.0975   19.0988   14.0958 H   0  0  0  0  0  0  0  0  0  0  0  0
    5.0185   17.1406   12.9077 H   0  0  0  0  0  0  0  0  0  0  0  0
    3.3795   17.4265   12.3737 H   0  0  0  0  0  0  0  0  0  0  0  0
    3.6773   16.7563   13.9596 H   0  0  0  0  0  0  0  0  0  0  0  0
  1 16  1  0  0  0  0
  1 22  1  0  0  0  0
  2 17  1  0  0  0  0
  2 23  1  0  0  0  0
  3 24  1  0  0  0  0
  3 18  1  0  0  0  0
  4 19  2  0  0  0  0
  5 20  2  0  0  0  0
  6 21  2  0  0  0  0
  7 22  2  0  0  0  0
  8 23  2  0  0  0  0
  9 24  2  0  0  0  0
 10 13  1  0  0  0  0
 10 25  1  0  0  0  0
 10 19  1  0  0  0  0
 11 20  1  0  0  0  0
 11 14  1  0  0  0  0
 11 26  1  0  0  0  0
 12 27  1  0  0  0  0
 12 21  1  0  0  0  0
 12 15  1  0  0  0  0
 13 35  1  0  0  0  0
 13 23  1  0  0  0  0
 13 49  1  1  0  0  0
 14 22  1  0  0  0  0
 14 31  1  0  0  0  0
 14 50  1  6  0  0  0
 15 45  1  0  0  0  0
 15 24  1  0  0  0  0
 15 51  1  1  0  0  0
 16 19  1  0  0  0  0
 16 28  1  0  0  0  0
 16 52  1  6  0  0  0
 17 42  1  0  0  0  0
 17 21  1  0  0  0  0
 17 53  1  6  0  0  0
 18 39  1  0  0  0  0
 18 20  1  0  0  0  0
 18 54  1  1  0  0  0
 25 55  1  0  0  0  0
 25 56  1  0  0  0  0
 25 57  1  0  0  0  0
 26 58  1  0  0  0  0
 26 59  1  0  0  0  0
 26 60  1  0  0  0  0
 27 61  1  0  0  0  0
 27 62  1  0  0  0  0
 27 63  1  0  0  0  0
 28 29  1  0  0  0  0
 28 30  1  0  0  0  0
 28 64  1  0  0  0  0
 29 65  1  0  0  0  0
 29 66  1  0  0  0  0
 29 67  1  0  0  0  0
 30 68  1  0  0  0  0
 30 69  1  0  0  0  0
 30 70  1  0  0  0  0
 31 33  1  0  0  0  0
 31 32  1  0  0  0  0
 31 71  1  1  0  0  0
 32 72  1  0  0  0  0
 32 73  1  0  0  0  0
 32 74  1  0  0  0  0
 33 34  1  0  0  0  0
 33 75  1  0  0  0  0
 33 76  1  0  0  0  0
 34 77  1  0  0  0  0
 34 78  1  0  0  0  0
 34 79  1  0  0  0  0
 35 37  1  0  0  0  0
 35 36  1  0  0  0  0
 35 80  1  1  0  0  0
 36 81  1  0  0  0  0
 36 82  1  0  0  0  0
 36 83  1  0  0  0  0
 37 38  1  0  0  0  0
 37 84  1  0  0  0  0
 37 85  1  0  0  0  0
 38 86  1  0  0  0  0
 38 87  1  0  0  0  0
 38 88  1  0  0  0  0
 39 40  1  0  0  0  0
 39 41  1  0  0  0  0
 39 89  1  0  0  0  0
 40 90  1  0  0  0  0
 40 91  1  0  0  0  0
 40 92  1  0  0  0  0
 41 93  1  0  0  0  0
 41 94  1  0  0  0  0
 41 95  1  0  0  0  0
 42 44  1  0  0  0  0
 42 43  1  0  0  0  0
 42 96  1  0  0  0  0
 43 97  1  0  0  0  0
 43 98  1  0  0  0  0
 43 99  1  0  0  0  0
 44100  1  0  0  0  0
 44101  1  0  0  0  0
 44102  1  0  0  0  0
 45 47  1  0  0  0  0
 45 46  1  0  0  0  0
 45103  1  6  0  0  0
 46104  1  0  0  0  0
 46105  1  0  0  0  0
 46106  1  0  0  0  0
 47 48  1  0  0  0  0
 47107  1  0  0  0  0
 47108  1  0  0  0  0
 48109  1  0  0  0  0
 48110  1  0  0  0  0
 48111  1  0  0  0  0
M  END
