@<TRIPOS>MOLECULE
Results/Site2/APO/ENA/ENA-Site2_1.pdb
 111 111 0 0 0
SMALL
GASTEIGER

@<TRIPOS>ATOM
      1  O          5.6690   25.0250   18.3310 O.3     1  UNL1       -0.4503
      2  O          4.7420   24.7920   13.3450 O.3     1  UNL1       -0.4503
      3  O          7.0170   21.7520   16.3520 O.3     1  UNL1       -0.4503
      4  O          4.0400   26.0320   16.5830 O.2     1  UNL1       -0.2715
      5  O          9.1160   20.7540   18.8980 O.2     1  UNL1       -0.2715
      6  O          4.3160   23.0170   15.2450 O.2     1  UNL1       -0.2715
      7  O          7.5530   24.8320   19.6460 O.2     1  UNL1       -0.2487
      8  O          6.9330   25.2050   13.9460 O.2     1  UNL1       -0.2487
      9  O          6.8930   19.5670   17.0640 O.2     1  UNL1       -0.2487
     10  N          5.7880   27.1810   15.5810 N.am    1  UNL1       -0.2878
     11  N          7.3070   22.0630   19.5230 N.am    1  UNL1       -0.2878
     12  N          5.4810   21.2780   14.2430 N.am    1  UNL1       -0.2878
     13  C          5.2310   26.9250   14.2380 C.3     1  UNL1        0.1253
     14  C          6.1360   22.8970   19.1790 C.3     1  UNL1        0.1253
     15  C          5.3020   20.3980   15.4210 C.3     1  UNL1        0.1253
     16  C          5.9730   26.3820   17.9420 C.3     1  UNL1        0.1808
     17  C          5.0550   23.4270   13.0040 C.3     1  UNL1        0.1808
     18  C          8.1590   22.0920   17.1430 C.3     1  UNL1        0.1808
     19  C          5.1660   26.5360   16.6600 C.2     1  UNL1        0.2571
     20  C          8.2300   21.5610   18.5920 C.2     1  UNL1        0.2571
     21  C          4.9190   22.5640   14.2640 C.2     1  UNL1        0.2571
     22  C          6.5660   24.3530   19.1080 C.2     1  UNL1        0.3288
     23  C          5.7650   25.5570   13.8330 C.2     1  UNL1        0.3288
     24  C          6.5160   20.4850   16.3470 C.2     1  UNL1        0.3288
     25  C          7.0220   27.9610   15.7000 C.3     1  UNL1        0.0041
     26  C          7.5170   21.7390   20.9340 C.3     1  UNL1        0.0041
     27  C          6.3110   20.7520   13.1540 C.3     1  UNL1        0.0041
     28  C          5.4880   27.3530   19.0030 C.3     1  UNL1       -0.0008
     29  C          4.2880   28.1500   18.4960 C.3     1  UNL1       -0.0588
     30  C          6.6150   28.2940   19.4270 C.3     1  UNL1       -0.0588
     31  C          4.9400   22.7500   20.1190 C.3     1  UNL1       -0.0151
     32  C          4.0890   24.0210   20.0750 C.3     1  UNL1       -0.0602
     33  C          4.0710   21.5280   19.7730 C.3     1  UNL1       -0.0511
     34  C          4.0750   20.4540   20.8510 C.3     1  UNL1       -0.0650
     35  C          5.5600   27.9460   13.1580 C.3     1  UNL1       -0.0151
     36  C          6.7930   27.4920   12.3720 C.3     1  UNL1       -0.0602
     37  C          4.3850   28.1810   12.1920 C.3     1  UNL1       -0.0511
     38  C          4.8230   28.5360   10.7770 C.3     1  UNL1       -0.0650
     39  C          9.4050   21.7050   16.3440 C.3     1  UNL1       -0.0008
     40  C          9.3640   22.3270   14.9510 C.3     1  UNL1       -0.0588
     41  C         10.6710   22.1320   17.0850 C.3     1  UNL1       -0.0588
     42  C          4.0430   22.9860   11.9560 C.3     1  UNL1       -0.0008
     43  C          4.3380   21.5620   11.4850 C.3     1  UNL1       -0.0588
     44  C          4.0380   23.9510   10.7710 C.3     1  UNL1       -0.0588
     45  C          4.9820   18.9500   15.0540 C.3     1  UNL1       -0.0151
     46  C          4.2970   18.2500   16.2330 C.3     1  UNL1       -0.0602
     47  C          4.0930   18.8410   13.8000 C.3     1  UNL1       -0.0511
     48  C          4.0380   17.4370   13.2170 C.3     1  UNL1       -0.0650
     49 H           4.1653   26.9858   14.3121 H       1  UNL1        0.0619
     50 H           5.7895   22.5444   18.2300 H       1  UNL1        0.0619
     51 H           4.4423   20.7599   15.9452 H       1  UNL1        0.0619
     52 H           7.0175   26.5780   17.8174 H       1  UNL1        0.0835
     53 H           6.0508   23.3301   12.6246 H       1  UNL1        0.0835
     54 H           8.0809   23.1450   17.3164 H       1  UNL1        0.0835
     55 H           7.2922   28.3497   14.7404 H       1  UNL1        0.0429
     56 H           7.8075   27.3324   16.0642 H       1  UNL1        0.0429
     57 H           6.8677   28.7707   16.3823 H       1  UNL1        0.0429
     58 H           8.3942   21.1346   21.0344 H       1  UNL1        0.0429
     59 H           6.6696   21.2025   21.3067 H       1  UNL1        0.0429
     60 H           7.6408   22.6430   21.4929 H       1  UNL1        0.0429
     61 H           6.3647   21.4738   12.3659 H       1  UNL1        0.0429
     62 H           5.8780   19.8476   12.7804 H       1  UNL1        0.0429
     63 H           7.2957   20.5509   13.5212 H       1  UNL1        0.0429
     64 H           5.1802   26.7881   19.8580 H       1  UNL1        0.0336
     65 H           4.5764   28.7227   17.6394 H       1  UNL1        0.0234
     66 H           3.9459   28.8087   19.2667 H       1  UNL1        0.0234
     67 H           3.5009   27.4770   18.2267 H       1  UNL1        0.0234
     68 H           6.9364   28.8684   18.5834 H       1  UNL1        0.0234
     69 H           7.4367   27.7202   19.8018 H       1  UNL1        0.0234
     70 H           6.2610   28.9523   20.1927 H       1  UNL1        0.0234
     71 H           5.3244   22.5992   21.1061 H       1  UNL1        0.0321
     72 H           3.7099   24.1623   19.0844 H       1  UNL1        0.0233
     73 H           4.6900   24.8624   20.3503 H       1  UNL1        0.0233
     74 H           3.2720   23.9271   20.7595 H       1  UNL1        0.0233
     75 H           4.4385   21.0975   18.8650 H       1  UNL1        0.0266
     76 H           3.0633   21.8754   19.6794 H       1  UNL1        0.0266
     77 H           5.0690   20.0783   20.9765 H       1  UNL1        0.0230
     78 H           3.4256   19.6547   20.5606 H       1  UNL1        0.0230
     79 H           3.7332   20.8738   21.7740 H       1  UNL1        0.0230
     80 H           5.7587   28.8751   13.6501 H       1  UNL1        0.0321
     81 H           6.5830   26.5629   11.8845 H       1  UNL1        0.0233
     82 H           7.6167   27.3645   13.0430 H       1  UNL1        0.0233
     83 H           7.0410   28.2312   11.6392 H       1  UNL1        0.0233
     84 H           3.7885   28.9834   12.5732 H       1  UNL1        0.0266
     85 H           3.8392   27.2627   12.1313 H       1  UNL1        0.0266
     86 H           5.3747   29.4526   10.7938 H       1  UNL1        0.0230
     87 H           3.9601   28.6505   10.1547 H       1  UNL1        0.0230
     88 H           5.4418   27.7543   10.3885 H       1  UNL1        0.0230
     89 H           9.4193   20.6405   16.2370 H       1  UNL1        0.0336
     90 H           9.3492   23.3934   15.0369 H       1  UNL1        0.0234
     91 H           8.4837   21.9981   14.4393 H       1  UNL1        0.0234
     92 H          10.2304   22.0255   14.4001 H       1  UNL1        0.0234
     93 H          10.6744   23.1956   17.2016 H       1  UNL1        0.0234
     94 H          11.5311   21.8320   16.5237 H       1  UNL1        0.0234
     95 H          10.6941   21.6675   18.0486 H       1  UNL1        0.0234
     96 H           3.0718   22.9978   12.4049 H       1  UNL1        0.0336
     97 H           5.3069   21.5296   11.0322 H       1  UNL1        0.0234
     98 H           3.6001   21.2627   10.7702 H       1  UNL1        0.0234
     99 H           4.3134   20.8969   12.3228 H       1  UNL1        0.0234
    100 H           5.0028   23.9528   10.3084 H       1  UNL1        0.0234
    101 H           3.8056   24.9372   11.1151 H       1  UNL1        0.0234
    102 H           3.3020   23.6387   10.0598 H       1  UNL1        0.0234
    103 H           5.9118   18.4700   14.8306 H       1  UNL1        0.0321
    104 H           3.3692   18.7380   16.4473 H       1  UNL1        0.0233
    105 H           4.9316   18.2968   17.0932 H       1  UNL1        0.0233
    106 H           4.1120   17.2266   15.9815 H       1  UNL1        0.0233
    107 H           4.4780   19.5033   13.0530 H       1  UNL1        0.0266
    108 H           3.0975   19.0988   14.0958 H       1  UNL1        0.0266
    109 H           5.0185   17.1406   12.9077 H       1  UNL1        0.0230
    110 H           3.3795   17.4265   12.3737 H       1  UNL1        0.0230
    111 H           3.6773   16.7563   13.9596 H       1  UNL1        0.0230
@<TRIPOS>BOND
     1     1    16    1
     2     1    22    1
     3     2    17    1
     4     2    23    1
     5     3    24    1
     6     3    18    1
     7     4    19    2
     8     5    20    2
     9     6    21    2
    10     7    22    2
    11     8    23    2
    12     9    24    2
    13    10    13    1
    14    10    25    1
    15    10    19   am
    16    11    20   am
    17    11    14    1
    18    11    26    1
    19    12    27    1
    20    12    21   am
    21    12    15    1
    22    13    35    1
    23    13    23    1
    24    14    22    1
    25    14    31    1
    26    15    45    1
    27    15    24    1
    28    16    19    1
    29    16    28    1
    30    17    42    1
    31    17    21    1
    32    18    39    1
    33    18    20    1
    34    28    29    1
    35    28    30    1
    36    31    33    1
    37    31    32    1
    38    33    34    1
    39    35    37    1
    40    35    36    1
    41    37    38    1
    42    39    40    1
    43    39    41    1
    44    42    44    1
    45    42    43    1
    46    45    47    1
    47    45    46    1
    48    47    48    1
    49    13    49    1
    50    14    50    1
    51    15    51    1
    52    16    52    1
    53    17    53    1
    54    18    54    1
    55    25    55    1
    56    25    56    1
    57    25    57    1
    58    26    58    1
    59    26    59    1
    60    26    60    1
    61    27    61    1
    62    27    62    1
    63    27    63    1
    64    28    64    1
    65    29    65    1
    66    29    66    1
    67    29    67    1
    68    30    68    1
    69    30    69    1
    70    30    70    1
    71    31    71    1
    72    32    72    1
    73    32    73    1
    74    32    74    1
    75    33    75    1
    76    33    76    1
    77    34    77    1
    78    34    78    1
    79    34    79    1
    80    35    80    1
    81    36    81    1
    82    36    82    1
    83    36    83    1
    84    37    84    1
    85    37    85    1
    86    38    86    1
    87    38    87    1
    88    38    88    1
    89    39    89    1
    90    40    90    1
    91    40    91    1
    92    40    92    1
    93    41    93    1
    94    41    94    1
    95    41    95    1
    96    42    96    1
    97    43    97    1
    98    43    98    1
    99    43    99    1
   100    44   100    1
   101    44   101    1
   102    44   102    1
   103    45   103    1
   104    46   104    1
   105    46   105    1
   106    46   106    1
   107    47   107    1
   108    47   108    1
   109    48   109    1
   110    48   110    1
   111    48   111    1
