@<TRIPOS>MOLECULE
ENB-Site2_1h.pdb
 102 102 0 0 0
SMALL
GASTEIGER

@<TRIPOS>ATOM
      1  O          5.8830    6.5070  -24.2400 O.3     1  UNL1       -0.4503
      2  O         10.9570    6.4700  -25.2540 O.3     1  UNL1       -0.4503
      3  O          9.0230   10.6820  -24.3210 O.3     1  UNL1       -0.4503
      4  O          8.1400    6.6780  -22.9770 O.2     1  UNL1       -0.2715
      5  O          6.8790    9.2790  -22.4170 O.2     1  UNL1       -0.2715
      6  O         12.7660    9.1480  -25.0000 O.2     1  UNL1       -0.2715
      7  O          6.6490    7.5950  -26.1230 O.2     1  UNL1       -0.2487
      8  O         12.3670    6.6560  -23.4430 O.2     1  UNL1       -0.2487
      9  O          9.6800   12.8400  -24.7490 O.2     1  UNL1       -0.2487
     10  N          9.2130    4.9240  -24.0360 N.am    1  UNL1       -0.2878
     11  N          6.1230    9.8860  -24.5250 N.am    1  UNL1       -0.2878
     12  N         10.7390    9.5740  -26.0600 N.am    1  UNL1       -0.2878
     13  C         10.4520    5.1990  -23.2800 C.3     1  UNL1        0.1250
     14  C          5.1890    8.7410  -24.5490 C.3     1  UNL1        0.1250
     15  C         10.8450   11.0330  -25.8530 C.3     1  UNL1        0.1250
     16  C          6.7740    5.3930  -24.4640 C.3     1  UNL1        0.1808
     17  C         11.7550    7.2850  -26.1290 C.3     1  UNL1        0.1808
     18  C          7.9960   11.1400  -23.4210 C.3     1  UNL1        0.1808
     19  C          8.0950    5.7260  -23.7650 C.2     1  UNL1        0.2571
     20  C          6.9550   10.0230  -23.3990 C.2     1  UNL1        0.2571
     21  C         11.8060    8.7480  -25.6660 C.2     1  UNL1        0.2571
     22  C          5.9870    7.5680  -25.0940 C.2     1  UNL1        0.3288
     23  C         11.3640    6.2020  -23.9840 C.2     1  UNL1        0.3288
     24  C          9.7850   11.6320  -24.9310 C.2     1  UNL1        0.3288
     25  C          9.2470    3.8580  -25.0420 C.3     1  UNL1        0.0041
     26  C          6.1430   10.7770  -25.6890 C.3     1  UNL1        0.0041
     27  C          9.5970    9.0820  -26.8340 C.3     1  UNL1        0.0041
     28  C          6.1230    4.1730  -23.8300 C.3     1  UNL1       -0.0008
     29  C          4.7540    4.5310  -23.2530 C.3     1  UNL1       -0.0588
     30  C          5.9940    3.0390  -24.8460 C.3     1  UNL1       -0.0588
     31  C          3.9160    8.9340  -25.3630 C.3     1  UNL1       -0.0177
     32  C          4.0810    8.3520  -26.7650 C.3     1  UNL1       -0.0605
     33  C          2.7230    8.2960  -24.6550 C.3     1  UNL1       -0.0605
     34  C         11.2470    3.9440  -22.9210 C.3     1  UNL1       -0.0177
     35  C         11.6320    3.9540  -21.4420 C.3     1  UNL1       -0.0605
     36  C         12.4930    3.8240  -23.7960 C.3     1  UNL1       -0.0605
     37  C          8.6160   11.3600  -22.0440 C.3     1  UNL1       -0.0008
     38  C          9.9540   10.6300  -21.9320 C.3     1  UNL1       -0.0588
     39  C          8.7940   12.8500  -21.7630 C.3     1  UNL1       -0.0588
     40  C         13.1450    6.6880  -26.3510 C.3     1  UNL1       -0.0008
     41  C         14.0000    7.6190  -27.2080 C.3     1  UNL1       -0.0588
     42  C         13.0400    5.3080  -26.9990 C.3     1  UNL1       -0.0588
     43  C         10.8810   11.7830  -27.1850 C.3     1  UNL1       -0.0177
     44  C          9.6020   12.5950  -27.3750 C.3     1  UNL1       -0.0605
     45  C         12.1080   12.6870  -27.2560 C.3     1  UNL1       -0.0605
     46  H         10.1070    5.6340  -22.3650 H       1  UNL1        0.0619
     47  H          4.8240    8.5940  -23.5540 H       1  UNL1        0.0619
     48  H         11.7760   11.1640  -25.3420 H       1  UNL1        0.0619
     49  H          6.9580    5.2040  -25.5010 H       1  UNL1        0.0835
     50  H         11.2720    7.2910  -27.0840 H       1  UNL1        0.0835
     51  H          7.5490   12.0650  -23.7190 H       1  UNL1        0.0835
     52  H          8.2860    3.7740  -25.5050 H       1  UNL1        0.0429
     53  H          9.4980    2.9310  -24.5710 H       1  UNL1        0.0429
     54  H          9.9810    4.0910  -25.7840 H       1  UNL1        0.0429
     55  H          5.4130   10.4510  -26.4000 H       1  UNL1        0.0429
     56  H          7.1140   10.7550  -26.1380 H       1  UNL1        0.0429
     57  H          5.9170   11.7750  -25.3780 H       1  UNL1        0.0429
     58  H          8.9150    9.8870  -27.0150 H       1  UNL1        0.0429
     59  H          9.1000    8.3100  -26.2850 H       1  UNL1        0.0429
     60  H          9.9420    8.6900  -27.7680 H       1  UNL1        0.0429
     61  H          6.7500    3.8390  -23.0300 H       1  UNL1        0.0336
     62  H          4.1120    4.8680  -24.0400 H       1  UNL1        0.0234
     63  H          4.8650    5.3080  -22.5260 H       1  UNL1        0.0234
     64  H          4.3260    3.6670  -22.7890 H       1  UNL1        0.0234
     65  H          5.3690    3.3540  -25.6550 H       1  UNL1        0.0234
     66  H          5.5600    2.1830  -24.3720 H       1  UNL1        0.0234
     67  H          6.9630    2.7850  -25.2220 H       1  UNL1        0.0234
     68  H          3.7320    9.9840  -25.4540 H       1  UNL1        0.0319
     69  H          4.2660    7.3010  -26.6950 H       1  UNL1        0.0233
     70  H          4.9050    8.8280  -27.2540 H       1  UNL1        0.0233
     71  H          3.1870    8.5200  -27.3280 H       1  UNL1        0.0233
     72  H          2.8890    7.2440  -24.5550 H       1  UNL1        0.0233
     73  H          1.8360    8.4640  -25.2290 H       1  UNL1        0.0233
     74  H          2.6080    8.7330  -23.6850 H       1  UNL1        0.0233
     75  H         10.6250    3.0930  -23.1030 H       1  UNL1        0.0319
     76  H         12.2560    4.8000  -21.2410 H       1  UNL1        0.0233
     77  H         12.1630    3.0560  -21.2060 H       1  UNL1        0.0233
     78  H         10.7470    4.0130  -20.8430 H       1  UNL1        0.0233
     79  H         13.1290    4.6680  -23.6280 H       1  UNL1        0.0233
     80  H         12.2040    3.7940  -24.8260 H       1  UNL1        0.0233
     81  H         13.0190    2.9260  -23.5470 H       1  UNL1        0.0233
     82  H          7.9500   10.9570  -21.3100 H       1  UNL1        0.0336
     83  H         10.6350   11.0200  -22.6590 H       1  UNL1        0.0234
     84  H          9.8060    9.5850  -22.1060 H       1  UNL1        0.0234
     85  H         10.3580   10.7740  -20.9520 H       1  UNL1        0.0234
     86  H          9.4580   13.2730  -22.4870 H       1  UNL1        0.0234
     87  H          9.2040   12.9820  -20.7830 H       1  UNL1        0.0234
     88  H          7.8450   13.3400  -21.8210 H       1  UNL1        0.0234
     89  H         13.6190    6.5780  -25.3980 H       1  UNL1        0.0336
     90  H         13.5420    7.7420  -28.1670 H       1  UNL1        0.0234
     91  H         14.9750    7.1960  -27.3300 H       1  UNL1        0.0234
     92  H         14.0820    8.5710  -26.7270 H       1  UNL1        0.0234
     93  H         12.5680    5.3980  -27.9550 H       1  UNL1        0.0234
     94  H         12.4590    4.6630  -26.3730 H       1  UNL1        0.0234
     95  H         14.0200    4.8970  -27.1230 H       1  UNL1        0.0234
     96  H         10.9450   11.0660  -27.9770 H       1  UNL1        0.0319
     97  H          9.5190   13.3190  -26.5910 H       1  UNL1        0.0233
     98  H          8.7560   11.9400  -27.3460 H       1  UNL1        0.0233
     99  H          9.6340   13.0950  -28.3200 H       1  UNL1        0.0233
    100  H         12.0620   13.4120  -26.4710 H       1  UNL1        0.0233
    101  H         12.1290   13.1860  -28.2020 H       1  UNL1        0.0233
    102  H         12.9930   12.0960  -27.1450 H       1  UNL1        0.0233
@<TRIPOS>BOND
     1     1    22    1
     2     1    16    1
     3     2    17    1
     4     2    23    1
     5     3    24    1
     6     3    18    1
     7     4    19    2
     8     5    20    2
     9     6    21    2
    10     7    22    2
    11     8    23    2
    12     9    24    2
    13    10    25    1
    14    10    19   am
    15    10    13    1
    16    11    26    1
    17    11    14    1
    18    11    20   am
    19    12    27    1
    20    12    15    1
    21    12    21   am
    22    13    23    1
    23    13    34    1
    24    13    46    1
    25    14    31    1
    26    14    22    1
    27    14    47    1
    28    15    43    1
    29    15    24    1
    30    15    48    1
    31    16    28    1
    32    16    19    1
    33    16    49    1
    34    17    40    1
    35    17    21    1
    36    17    50    1
    37    18    20    1
    38    18    37    1
    39    18    51    1
    40    25    52    1
    41    25    53    1
    42    25    54    1
    43    26    55    1
    44    26    56    1
    45    26    57    1
    46    27    58    1
    47    27    59    1
    48    27    60    1
    49    28    30    1
    50    28    29    1
    51    28    61    1
    52    29    62    1
    53    29    63    1
    54    29    64    1
    55    30    65    1
    56    30    66    1
    57    30    67    1
    58    31    32    1
    59    31    33    1
    60    31    68    1
    61    32    69    1
    62    32    70    1
    63    32    71    1
    64    33    72    1
    65    33    73    1
    66    33    74    1
    67    34    36    1
    68    34    35    1
    69    34    75    1
    70    35    76    1
    71    35    77    1
    72    35    78    1
    73    36    79    1
    74    36    80    1
    75    36    81    1
    76    37    38    1
    77    37    39    1
    78    37    82    1
    79    38    83    1
    80    38    84    1
    81    38    85    1
    82    39    86    1
    83    39    87    1
    84    39    88    1
    85    40    41    1
    86    40    42    1
    87    40    89    1
    88    41    90    1
    89    41    91    1
    90    41    92    1
    91    42    93    1
    92    42    94    1
    93    42    95    1
    94    43    44    1
    95    43    45    1
    96    43    96    1
    97    44    97    1
    98    44    98    1
    99    44    99    1
   100    45   100    1
   101    45   101    1
   102    45   102    1
