Results/Site1/APO/ENA1/ENA1-Site1_1.pdb
 OpenBabel08312517013D

108108  0  0  1  0  0  0  0  0999 V2000
   26.5720   26.1910   30.2260 O   0  0  0  0  0  0  0  0  0  0  0  0
   28.4130   21.9630   31.7040 O   0  0  0  0  0  0  0  0  0  0  0  0
   25.9180   23.5220   34.4940 O   0  0  0  0  0  0  0  0  0  0  0  0
   25.9650   23.6510   30.5740 O   0  0  0  0  0  0  0  0  0  0  0  0
   28.3580   26.1720   31.6870 O   0  0  0  0  0  0  0  0  0  0  0  0
   24.7120   25.3570   33.1190 O   0  0  0  0  0  0  0  0  0  0  0  0
   28.5220   19.7640   31.0320 O   0  0  0  0  0  0  0  0  0  0  0  0
   29.8220   19.6740   33.8640 O   0  0  0  0  0  0  0  0  0  0  0  0
   27.3300   22.6000   36.0680 O   0  0  0  0  0  0  0  0  0  0  0  0
   27.6950   22.7910   29.2900 N   0  0  0  0  0  0  0  0  0  0  0  0
   26.4130   26.8640   33.5900 N   0  0  0  0  0  0  0  0  0  0  0  0
   27.6870   20.4010   34.4000 N   0  0  0  0  0  0  0  0  0  0  0  0
   27.3550   21.3950   29.6550 C   0  0  2  0  0  0  0  0  0  0  0  0
   26.3400   27.4250   32.2270 C   0  0  2  0  0  0  0  0  0  0  0  0
   27.2360   25.2640   29.3440 C   0  0  1  0  0  0  0  0  0  0  0  0
   26.5280   21.2880   34.1680 C   0  0  2  0  0  0  0  0  0  0  0  0
   26.0480   24.8550   35.0340 C   0  0  1  0  0  0  0  0  0  0  0  0
   29.1800   21.7810   32.8990 C   0  0  1  0  0  0  0  0  0  0  0  0
   26.9080   23.8360   29.7970 C   0  0  0  0  0  0  0  0  0  0  0  0
   27.2310   26.5320   31.3740 C   0  0  0  0  0  0  0  0  0  0  0  0
   25.6420   25.7210   33.8480 C   0  0  0  0  0  0  0  0  0  0  0  0
   28.1980   20.9300   30.8430 C   0  0  0  0  0  0  0  0  0  0  0  0
   28.9240   20.5150   33.7470 C   0  0  0  0  0  0  0  0  0  0  0  0
   26.6620   22.5210   35.0480 C   0  0  0  0  0  0  0  0  0  0  0  0
   28.8970   22.9780   28.4700 C   0  0  0  0  0  0  0  0  0  0  0  0
   27.3770   27.4270   34.5390 C   0  0  0  0  0  0  0  0  0  0  0  0
   27.5300   19.3260   35.3810 C   0  0  0  0  0  0  0  0  0  0  0  0
   26.6870   25.5090   27.9450 C   0  0  0  0  0  0  0  0  0  0  0  0
   25.7170   26.6900   27.9450 C   0  0  0  0  0  0  0  0  0  0  0  0
   27.8240   25.7520   26.9540 C   0  0  0  0  0  0  0  0  0  0  0  0
   26.7640   28.8790   32.0660 C   0  0  1  0  0  0  0  0  0  0  0  0
   26.8100   29.2420   30.5800 C   0  0  0  0  0  0  0  0  0  0  0  0
   25.8280   29.8460   32.8120 C   0  0  0  0  0  0  0  0  0  0  0  0
   24.9250   30.6540   31.8880 C   0  0  0  0  0  0  0  0  0  0  0  0
   27.4530   20.4210   28.4830 C   0  0  1  0  0  0  0  0  0  0  0  0
   28.8900   19.9070   28.3530 C   0  0  0  0  0  0  0  0  0  0  0  0
   26.4870   19.2310   28.6250 C   0  0  0  0  0  0  0  0  0  0  0  0
   25.3580   19.4790   29.6160 C   0  0  0  0  0  0  0  0  0  0  0  0
   25.0880   25.0480   36.1940 C   0  0  0  0  0  0  0  0  0  0  0  0
   25.7630   24.6850   37.5140 C   0  0  0  0  0  0  0  0  0  0  0  0
   23.8250   24.2140   35.9890 C   0  0  0  0  0  0  0  0  0  0  0  0
   30.6560   21.9140   32.5230 C   0  0  0  0  0  0  0  0  0  0  0  0
   30.8630   23.0690   31.5430 C   0  0  0  0  0  0  0  0  0  0  0  0
   31.5150   22.1110   33.7710 C   0  0  0  0  0  0  0  0  0  0  0  0
   25.1620   20.6390   34.3820 C   0  0  0  0  0  0  0  0  0  0  0  0
   24.1610   21.1280   33.3360 C   0  0  0  0  0  0  0  0  0  0  0  0
   24.6430   20.9220   35.7910 C   0  0  0  0  0  0  0  0  0  0  0  0
   26.3247   21.3953   29.9438 H   0  0  0  0  0  0  0  0  0  0  0  0
   25.3103   27.4385   31.9363 H   0  0  0  0  0  0  0  0  0  0  0  0
   28.2979   25.3945   29.3559 H   0  0  0  0  0  0  0  0  0  0  0  0
   26.5540   21.5423   33.1290 H   0  0  0  0  0  0  0  0  0  0  0  0
   27.0219   25.0791   35.4163 H   0  0  0  0  0  0  0  0  0  0  0  0
   28.8469   22.5448   33.5702 H   0  0  0  0  0  0  0  0  0  0  0  0
   29.3076   22.0231   28.2160 H   0  0  0  0  0  0  0  0  0  0  0  0
   29.6203   23.5421   29.0208 H   0  0  0  0  0  0  0  0  0  0  0  0
   28.6398   23.5051   27.5751 H   0  0  0  0  0  0  0  0  0  0  0  0
   27.8350   28.2937   34.1102 H   0  0  0  0  0  0  0  0  0  0  0  0
   28.1288   26.6980   34.7585 H   0  0  0  0  0  0  0  0  0  0  0  0
   26.8711   27.7005   35.4413 H   0  0  0  0  0  0  0  0  0  0  0  0
   28.4401   18.7672   35.4465 H   0  0  0  0  0  0  0  0  0  0  0  0
   26.7349   18.6782   35.0760 H   0  0  0  0  0  0  0  0  0  0  0  0
   27.3002   19.7468   36.3376 H   0  0  0  0  0  0  0  0  0  0  0  0
   26.1533   24.6338   27.6384 H   0  0  0  0  0  0  0  0  0  0  0  0
   26.2338   27.5760   28.2496 H   0  0  0  0  0  0  0  0  0  0  0  0
   24.9152   26.4930   28.6255 H   0  0  0  0  0  0  0  0  0  0  0  0
   25.3229   26.8279   26.9598 H   0  0  0  0  0  0  0  0  0  0  0  0
   28.3701   26.6250   27.2448 H   0  0  0  0  0  0  0  0  0  0  0  0
   27.4186   25.8948   25.9741 H   0  0  0  0  0  0  0  0  0  0  0  0
   28.4796   24.9064   26.9490 H   0  0  0  0  0  0  0  0  0  0  0  0
   27.7375   28.9801   32.4984 H   0  0  0  0  0  0  0  0  0  0  0  0
   25.8327   29.1378   30.1570 H   0  0  0  0  0  0  0  0  0  0  0  0
   27.4892   28.5882   30.0740 H   0  0  0  0  0  0  0  0  0  0  0  0
   27.1402   30.2538   30.4701 H   0  0  0  0  0  0  0  0  0  0  0  0
   26.4274   30.5267   33.3797 H   0  0  0  0  0  0  0  0  0  0  0  0
   25.1909   29.2508   33.4323 H   0  0  0  0  0  0  0  0  0  0  0  0
   25.5256   31.2659   31.2479 H   0  0  0  0  0  0  0  0  0  0  0  0
   24.2803   31.2757   32.4735 H   0  0  0  0  0  0  0  0  0  0  0  0
   24.3350   29.9878   31.2938 H   0  0  0  0  0  0  0  0  0  0  0  0
   27.1724   20.9572   27.6006 H   0  0  0  0  0  0  0  0  0  0  0  0
   29.1594   19.3730   29.2402 H   0  0  0  0  0  0  0  0  0  0  0  0
   29.5543   20.7351   28.2195 H   0  0  0  0  0  0  0  0  0  0  0  0
   28.9601   19.2538   27.5084 H   0  0  0  0  0  0  0  0  0  0  0  0
   27.0451   18.3793   28.9538 H   0  0  0  0  0  0  0  0  0  0  0  0
   26.0361   19.0761   27.6671 H   0  0  0  0  0  0  0  0  0  0  0  0
   25.7682   19.6394   30.5912 H   0  0  0  0  0  0  0  0  0  0  0  0
   24.7090   18.6285   29.6375 H   0  0  0  0  0  0  0  0  0  0  0  0
   24.8034   20.3434   29.3158 H   0  0  0  0  0  0  0  0  0  0  0  0
   24.8075   26.0799   36.2320 H   0  0  0  0  0  0  0  0  0  0  0  0
   26.0515   23.6548   37.4956 H   0  0  0  0  0  0  0  0  0  0  0  0
   25.0800   24.8497   38.3210 H   0  0  0  0  0  0  0  0  0  0  0  0
   26.6307   25.2960   37.6508 H   0  0  0  0  0  0  0  0  0  0  0  0
   24.0851   23.1769   35.9482 H   0  0  0  0  0  0  0  0  0  0  0  0
   23.3538   24.4998   35.0719 H   0  0  0  0  0  0  0  0  0  0  0  0
   23.1513   24.3810   36.8033 H   0  0  0  0  0  0  0  0  0  0  0  0
   30.9604   21.0072   32.0434 H   0  0  0  0  0  0  0  0  0  0  0  0
   30.5637   23.9866   32.0048 H   0  0  0  0  0  0  0  0  0  0  0  0
   30.2735   22.9024   30.6657 H   0  0  0  0  0  0  0  0  0  0  0  0
   31.8967   23.1264   31.2726 H   0  0  0  0  0  0  0  0  0  0  0  0
   31.2245   23.0146   34.2649 H   0  0  0  0  0  0  0  0  0  0  0  0
   32.5451   22.1741   33.4886 H   0  0  0  0  0  0  0  0  0  0  0  0
   31.3769   21.2822   34.4335 H   0  0  0  0  0  0  0  0  0  0  0  0
   25.2762   19.5809   34.2710 H   0  0  0  0  0  0  0  0  0  0  0  0
   24.0335   22.1861   33.4316 H   0  0  0  0  0  0  0  0  0  0  0  0
   23.2206   20.6404   33.4869 H   0  0  0  0  0  0  0  0  0  0  0  0
   24.5280   20.8999   32.3571 H   0  0  0  0  0  0  0  0  0  0  0  0
   24.5222   21.9771   35.9213 H   0  0  0  0  0  0  0  0  0  0  0  0
   25.3434   20.5517   36.5102 H   0  0  0  0  0  0  0  0  0  0  0  0
   23.7000   20.4354   35.9282 H   0  0  0  0  0  0  0  0  0  0  0  0
  1 15  1  0  0  0  0
  1 20  1  0  0  0  0
  2 22  1  0  0  0  0
  2 18  1  0  0  0  0
  3 17  1  0  0  0  0
  3 24  1  0  0  0  0
  4 19  2  0  0  0  0
  5 20  2  0  0  0  0
  6 21  2  0  0  0  0
  7 22  2  0  0  0  0
  8 23  2  0  0  0  0
  9 24  2  0  0  0  0
 10 25  1  0  0  0  0
 10 13  1  0  0  0  0
 10 19  1  0  0  0  0
 11 14  1  0  0  0  0
 11 21  1  0  0  0  0
 11 26  1  0  0  0  0
 12 23  1  0  0  0  0
 12 16  1  0  0  0  0
 12 27  1  0  0  0  0
 13 35  1  0  0  0  0
 13 22  1  0  0  0  0
 13 48  1  1  0  0  0
 14 20  1  0  0  0  0
 14 31  1  0  0  0  0
 14 49  1  6  0  0  0
 15 28  1  0  0  0  0
 15 19  1  0  0  0  0
 15 50  1  1  0  0  0
 16 45  1  0  0  0  0
 16 24  1  0  0  0  0
 16 51  1  6  0  0  0
 17 21  1  0  0  0  0
 17 39  1  0  0  0  0
 17 52  1  1  0  0  0
 18 42  1  0  0  0  0
 18 23  1  0  0  0  0
 18 53  1  1  0  0  0
 25 54  1  0  0  0  0
 25 55  1  0  0  0  0
 25 56  1  0  0  0  0
 26 57  1  0  0  0  0
 26 58  1  0  0  0  0
 26 59  1  0  0  0  0
 27 60  1  0  0  0  0
 27 61  1  0  0  0  0
 27 62  1  0  0  0  0
 28 30  1  0  0  0  0
 28 29  1  0  0  0  0
 28 63  1  0  0  0  0
 29 64  1  0  0  0  0
 29 65  1  0  0  0  0
 29 66  1  0  0  0  0
 30 67  1  0  0  0  0
 30 68  1  0  0  0  0
 30 69  1  0  0  0  0
 31 32  1  0  0  0  0
 31 33  1  0  0  0  0
 31 70  1  1  0  0  0
 32 71  1  0  0  0  0
 32 72  1  0  0  0  0
 32 73  1  0  0  0  0
 33 34  1  0  0  0  0
 33 74  1  0  0  0  0
 33 75  1  0  0  0  0
 34 76  1  0  0  0  0
 34 77  1  0  0  0  0
 34 78  1  0  0  0  0
 35 36  1  0  0  0  0
 35 37  1  0  0  0  0
 35 79  1  6  0  0  0
 36 80  1  0  0  0  0
 36 81  1  0  0  0  0
 36 82  1  0  0  0  0
 37 38  1  0  0  0  0
 37 83  1  0  0  0  0
 37 84  1  0  0  0  0
 38 85  1  0  0  0  0
 38 86  1  0  0  0  0
 38 87  1  0  0  0  0
 39 41  1  0  0  0  0
 39 40  1  0  0  0  0
 39 88  1  0  0  0  0
 40 89  1  0  0  0  0
 40 90  1  0  0  0  0
 40 91  1  0  0  0  0
 41 92  1  0  0  0  0
 41 93  1  0  0  0  0
 41 94  1  0  0  0  0
 42 43  1  0  0  0  0
 42 44  1  0  0  0  0
 42 95  1  0  0  0  0
 43 96  1  0  0  0  0
 43 97  1  0  0  0  0
 43 98  1  0  0  0  0
 44 99  1  0  0  0  0
 44100  1  0  0  0  0
 44101  1  0  0  0  0
 45 46  1  0  0  0  0
 45 47  1  0  0  0  0
 45102  1  0  0  0  0
 46103  1  0  0  0  0
 46104  1  0  0  0  0
 46105  1  0  0  0  0
 47106  1  0  0  0  0
 47107  1  0  0  0  0
 47108  1  0  0  0  0
M  END
