@<TRIPOS>MOLECULE
Results/Site1/APO/ENA1/ENA1-Site1_1.pdb
 108 108 0 0 0
SMALL
GASTEIGER

@<TRIPOS>ATOM
      1  O         26.5720   26.1910   30.2260 O.3     1  UNL1       -0.4503
      2  O         28.4130   21.9630   31.7040 O.3     1  UNL1       -0.4503
      3  O         25.9180   23.5220   34.4940 O.3     1  UNL1       -0.4503
      4  O         25.9650   23.6510   30.5740 O.2     1  UNL1       -0.2715
      5  O         28.3580   26.1720   31.6870 O.2     1  UNL1       -0.2487
      6  O         24.7120   25.3570   33.1190 O.2     1  UNL1       -0.2715
      7  O         28.5220   19.7640   31.0320 O.2     1  UNL1       -0.2487
      8  O         29.8220   19.6740   33.8640 O.2     1  UNL1       -0.2715
      9  O         27.3300   22.6000   36.0680 O.2     1  UNL1       -0.2487
     10  N         27.6950   22.7910   29.2900 N.am    1  UNL1       -0.2878
     11  N         26.4130   26.8640   33.5900 N.am    1  UNL1       -0.2878
     12  N         27.6870   20.4010   34.4000 N.am    1  UNL1       -0.2878
     13  C         27.3550   21.3950   29.6550 C.3     1  UNL1        0.1253
     14  C         26.3400   27.4250   32.2270 C.3     1  UNL1        0.1253
     15  C         27.2360   25.2640   29.3440 C.3     1  UNL1        0.1808
     16  C         26.5280   21.2880   34.1680 C.3     1  UNL1        0.1250
     17  C         26.0480   24.8550   35.0340 C.3     1  UNL1        0.1808
     18  C         29.1800   21.7810   32.8990 C.3     1  UNL1        0.1808
     19  C         26.9080   23.8360   29.7970 C.2     1  UNL1        0.2571
     20  C         27.2310   26.5320   31.3740 C.2     1  UNL1        0.3288
     21  C         25.6420   25.7210   33.8480 C.2     1  UNL1        0.2571
     22  C         28.1980   20.9300   30.8430 C.2     1  UNL1        0.3288
     23  C         28.9240   20.5150   33.7470 C.2     1  UNL1        0.2571
     24  C         26.6620   22.5210   35.0480 C.2     1  UNL1        0.3288
     25  C         28.8970   22.9780   28.4700 C.3     1  UNL1        0.0041
     26  C         27.3770   27.4270   34.5390 C.3     1  UNL1        0.0041
     27  C         27.5300   19.3260   35.3810 C.3     1  UNL1        0.0041
     28  C         26.6870   25.5090   27.9450 C.3     1  UNL1       -0.0008
     29  C         25.7170   26.6900   27.9450 C.3     1  UNL1       -0.0588
     30  C         27.8240   25.7520   26.9540 C.3     1  UNL1       -0.0588
     31  C         26.7640   28.8790   32.0660 C.3     1  UNL1       -0.0151
     32  C         26.8100   29.2420   30.5800 C.3     1  UNL1       -0.0602
     33  C         25.8280   29.8460   32.8120 C.3     1  UNL1       -0.0511
     34  C         24.9250   30.6540   31.8880 C.3     1  UNL1       -0.0650
     35  C         27.4530   20.4210   28.4830 C.3     1  UNL1       -0.0151
     36  C         28.8900   19.9070   28.3530 C.3     1  UNL1       -0.0602
     37  C         26.4870   19.2310   28.6250 C.3     1  UNL1       -0.0511
     38  C         25.3580   19.4790   29.6160 C.3     1  UNL1       -0.0650
     39  C         25.0880   25.0480   36.1940 C.3     1  UNL1       -0.0008
     40  C         25.7630   24.6850   37.5140 C.3     1  UNL1       -0.0588
     41  C         23.8250   24.2140   35.9890 C.3     1  UNL1       -0.0588
     42  C         30.6560   21.9140   32.5230 C.3     1  UNL1       -0.0008
     43  C         30.8630   23.0690   31.5430 C.3     1  UNL1       -0.0588
     44  C         31.5150   22.1110   33.7710 C.3     1  UNL1       -0.0588
     45  C         25.1620   20.6390   34.3820 C.3     1  UNL1       -0.0177
     46  C         24.1610   21.1280   33.3360 C.3     1  UNL1       -0.0605
     47  C         24.6430   20.9220   35.7910 C.3     1  UNL1       -0.0605
     48 H          26.3247   21.3953   29.9438 H       1  UNL1        0.0619
     49 H          25.3103   27.4385   31.9363 H       1  UNL1        0.0619
     50 H          28.2979   25.3945   29.3559 H       1  UNL1        0.0835
     51 H          26.5540   21.5423   33.1290 H       1  UNL1        0.0619
     52 H          27.0219   25.0791   35.4163 H       1  UNL1        0.0835
     53 H          28.8469   22.5448   33.5702 H       1  UNL1        0.0835
     54 H          29.3076   22.0231   28.2160 H       1  UNL1        0.0429
     55 H          29.6203   23.5421   29.0208 H       1  UNL1        0.0429
     56 H          28.6398   23.5051   27.5751 H       1  UNL1        0.0429
     57 H          27.8350   28.2937   34.1102 H       1  UNL1        0.0429
     58 H          28.1288   26.6980   34.7585 H       1  UNL1        0.0429
     59 H          26.8711   27.7005   35.4413 H       1  UNL1        0.0429
     60 H          28.4401   18.7672   35.4465 H       1  UNL1        0.0429
     61 H          26.7349   18.6782   35.0760 H       1  UNL1        0.0429
     62 H          27.3002   19.7468   36.3376 H       1  UNL1        0.0429
     63 H          26.1533   24.6338   27.6384 H       1  UNL1        0.0336
     64 H          26.2338   27.5760   28.2496 H       1  UNL1        0.0234
     65 H          24.9152   26.4930   28.6255 H       1  UNL1        0.0234
     66 H          25.3229   26.8279   26.9598 H       1  UNL1        0.0234
     67 H          28.3701   26.6250   27.2448 H       1  UNL1        0.0234
     68 H          27.4186   25.8948   25.9741 H       1  UNL1        0.0234
     69 H          28.4796   24.9064   26.9490 H       1  UNL1        0.0234
     70 H          27.7375   28.9801   32.4984 H       1  UNL1        0.0321
     71 H          25.8327   29.1378   30.1570 H       1  UNL1        0.0233
     72 H          27.4892   28.5882   30.0740 H       1  UNL1        0.0233
     73 H          27.1402   30.2538   30.4701 H       1  UNL1        0.0233
     74 H          26.4274   30.5267   33.3797 H       1  UNL1        0.0266
     75 H          25.1909   29.2508   33.4323 H       1  UNL1        0.0266
     76 H          25.5256   31.2659   31.2479 H       1  UNL1        0.0230
     77 H          24.2803   31.2757   32.4735 H       1  UNL1        0.0230
     78 H          24.3350   29.9878   31.2938 H       1  UNL1        0.0230
     79 H          27.1724   20.9572   27.6006 H       1  UNL1        0.0321
     80 H          29.1594   19.3730   29.2402 H       1  UNL1        0.0233
     81 H          29.5543   20.7351   28.2195 H       1  UNL1        0.0233
     82 H          28.9601   19.2538   27.5084 H       1  UNL1        0.0233
     83 H          27.0451   18.3793   28.9538 H       1  UNL1        0.0266
     84 H          26.0361   19.0761   27.6671 H       1  UNL1        0.0266
     85 H          25.7682   19.6394   30.5912 H       1  UNL1        0.0230
     86 H          24.7090   18.6285   29.6375 H       1  UNL1        0.0230
     87 H          24.8034   20.3434   29.3158 H       1  UNL1        0.0230
     88 H          24.8075   26.0799   36.2320 H       1  UNL1        0.0336
     89 H          26.0515   23.6548   37.4956 H       1  UNL1        0.0234
     90 H          25.0800   24.8497   38.3210 H       1  UNL1        0.0234
     91 H          26.6307   25.2960   37.6508 H       1  UNL1        0.0234
     92 H          24.0851   23.1769   35.9482 H       1  UNL1        0.0234
     93 H          23.3538   24.4998   35.0719 H       1  UNL1        0.0234
     94 H          23.1513   24.3810   36.8033 H       1  UNL1        0.0234
     95 H          30.9604   21.0072   32.0434 H       1  UNL1        0.0336
     96 H          30.5637   23.9866   32.0048 H       1  UNL1        0.0234
     97 H          30.2735   22.9024   30.6657 H       1  UNL1        0.0234
     98 H          31.8967   23.1264   31.2726 H       1  UNL1        0.0234
     99 H          31.2245   23.0146   34.2649 H       1  UNL1        0.0234
    100 H          32.5451   22.1741   33.4886 H       1  UNL1        0.0234
    101 H          31.3769   21.2822   34.4335 H       1  UNL1        0.0234
    102 H          25.2762   19.5809   34.2710 H       1  UNL1        0.0319
    103 H          24.0335   22.1861   33.4316 H       1  UNL1        0.0233
    104 H          23.2206   20.6404   33.4869 H       1  UNL1        0.0233
    105 H          24.5280   20.8999   32.3571 H       1  UNL1        0.0233
    106 H          24.5222   21.9771   35.9213 H       1  UNL1        0.0233
    107 H          25.3434   20.5517   36.5102 H       1  UNL1        0.0233
    108 H          23.7000   20.4354   35.9282 H       1  UNL1        0.0233
@<TRIPOS>BOND
     1     1    15    1
     2     1    20    1
     3     2    22    1
     4     2    18    1
     5     3    17    1
     6     3    24    1
     7     4    19    2
     8     5    20    2
     9     6    21    2
    10     7    22    2
    11     8    23    2
    12     9    24    2
    13    10    25    1
    14    10    13    1
    15    10    19   am
    16    11    14    1
    17    11    21   am
    18    11    26    1
    19    12    23   am
    20    12    16    1
    21    12    27    1
    22    13    35    1
    23    13    22    1
    24    14    20    1
    25    14    31    1
    26    15    28    1
    27    15    19    1
    28    16    45    1
    29    16    24    1
    30    17    21    1
    31    17    39    1
    32    18    42    1
    33    18    23    1
    34    28    30    1
    35    28    29    1
    36    31    32    1
    37    31    33    1
    38    33    34    1
    39    35    36    1
    40    35    37    1
    41    37    38    1
    42    39    41    1
    43    39    40    1
    44    42    43    1
    45    42    44    1
    46    45    46    1
    47    45    47    1
    48    13    48    1
    49    14    49    1
    50    15    50    1
    51    16    51    1
    52    17    52    1
    53    18    53    1
    54    25    54    1
    55    25    55    1
    56    25    56    1
    57    26    57    1
    58    26    58    1
    59    26    59    1
    60    27    60    1
    61    27    61    1
    62    27    62    1
    63    28    63    1
    64    29    64    1
    65    29    65    1
    66    29    66    1
    67    30    67    1
    68    30    68    1
    69    30    69    1
    70    31    70    1
    71    32    71    1
    72    32    72    1
    73    32    73    1
    74    33    74    1
    75    33    75    1
    76    34    76    1
    77    34    77    1
    78    34    78    1
    79    35    79    1
    80    36    80    1
    81    36    81    1
    82    36    82    1
    83    37    83    1
    84    37    84    1
    85    38    85    1
    86    38    86    1
    87    38    87    1
    88    39    88    1
    89    40    89    1
    90    40    90    1
    91    40    91    1
    92    41    92    1
    93    41    93    1
    94    41    94    1
    95    42    95    1
    96    43    96    1
    97    43    97    1
    98    43    98    1
    99    44    99    1
   100    44   100    1
   101    44   101    1
   102    45   102    1
   103    46   103    1
   104    46   104    1
   105    46   105    1
   106    47   106    1
   107    47   107    1
   108    47   108    1
