Results/Site2/APO/ENB/ENB-Site2_1.pdb
 OpenBabel08312517013D

102102  0  0  1  0  0  0  0  0999 V2000
    5.6110   25.3820   16.1760 O   0  0  0  0  0  0  0  0  0  0  0  0
    5.4480   20.4460   17.7240 O   0  0  0  0  0  0  0  0  0  0  0  0
    6.6200   21.2030   13.2060 O   0  0  0  0  0  0  0  0  0  0  0  0
    7.2390   23.4710   16.8240 O   0  0  0  0  0  0  0  0  0  0  0  0
    7.9360   23.9980   14.0120 O   0  0  0  0  0  0  0  0  0  0  0  0
    6.3600   18.0190   15.7790 O   0  0  0  0  0  0  0  0  0  0  0  0
    4.0470   23.9720   15.2360 O   0  0  0  0  0  0  0  0  0  0  0  0
    7.4740   19.4320   18.1350 O   0  0  0  0  0  0  0  0  0  0  0  0
    6.6060   19.8690   11.3360 O   0  0  0  0  0  0  0  0  0  0  0  0
    6.1400   22.7730   18.7360 N   0  0  0  0  0  0  0  0  0  0  0  0
    5.8360   24.1080   13.0320 N   0  0  0  0  0  0  0  0  0  0  0  0
    5.0500   19.5780   14.6540 N   0  0  0  0  0  0  0  0  0  0  0  0
    7.1200   21.6830   18.9250 C   0  0  2  0  0  0  0  0  0  0  0  0
    5.5020   25.3130   13.8200 C   0  0  2  0  0  0  0  0  0  0  0  0
    5.4710   19.0920   13.3230 C   0  0  2  0  0  0  0  0  0  0  0  0
    5.3870   24.8310   17.4920 C   0  0  1  0  0  0  0  0  0  0  0  0
    4.8360   19.2870   17.1330 C   0  0  1  0  0  0  0  0  0  0  0  0
    7.3930   22.2070   12.5220 C   0  0  1  0  0  0  0  0  0  0  0  0
    6.3320   23.6360   17.6470 C   0  0  0  0  0  0  0  0  0  0  0  0
    7.0910   23.5130   13.2530 C   0  0  0  0  0  0  0  0  0  0  0  0
    5.4980   18.9020   15.8020 C   0  0  0  0  0  0  0  0  0  0  0  0
    4.9400   24.8030   15.1360 C   0  0  0  0  0  0  0  0  0  0  0  0
    6.7200   20.3960   18.2060 C   0  0  0  0  0  0  0  0  0  0  0  0
    6.2790   20.0900   12.4980 C   0  0  0  0  0  0  0  0  0  0  0  0
    5.0170   22.8550   19.6740 C   0  0  0  0  0  0  0  0  0  0  0  0
    4.8240   23.5960   12.1020 C   0  0  0  0  0  0  0  0  0  0  0  0
    4.0400   20.6380   14.6990 C   0  0  0  0  0  0  0  0  0  0  0  0
    5.7320   25.9240   18.4920 C   0  0  0  0  0  0  0  0  0  0  0  0
    6.2260   27.1780   17.7710 C   0  0  0  0  0  0  0  0  0  0  0  0
    4.5260   26.2530   19.3710 C   0  0  0  0  0  0  0  0  0  0  0  0
    4.5250   26.2850   13.1720 C   0  0  0  0  0  0  0  0  0  0  0  0
    4.4980   27.6080   13.9340 C   0  0  0  0  0  0  0  0  0  0  0  0
    4.8900   26.5180   11.7070 C   0  0  0  0  0  0  0  0  0  0  0  0
    7.4290   21.3790   20.3900 C   0  0  0  0  0  0  0  0  0  0  0  0
    8.9390   21.3450   20.6270 C   0  0  0  0  0  0  0  0  0  0  0  0
    6.7910   20.0590   20.8150 C   0  0  0  0  0  0  0  0  0  0  0  0
    8.8710   21.8360   12.6190 C   0  0  0  0  0  0  0  0  0  0  0  0
    9.1680   21.1500   13.9520 C   0  0  0  0  0  0  0  0  0  0  0  0
    9.2800   20.9390   11.4530 C   0  0  0  0  0  0  0  0  0  0  0  0
    4.7650   18.1190   18.1170 C   0  0  0  0  0  0  0  0  0  0  0  0
    4.0780   16.9160   17.4740 C   0  0  0  0  0  0  0  0  0  0  0  0
    4.0380   18.5340   19.3940 C   0  0  0  0  0  0  0  0  0  0  0  0
    4.2780   18.5740   12.5180 C   0  0  0  0  0  0  0  0  0  0  0  0
    4.1570   19.3300   11.1970 C   0  0  0  0  0  0  0  0  0  0  0  0
    4.4110   17.0750   12.2720 C   0  0  0  0  0  0  0  0  0  0  0  0
    8.0162   22.0600   18.4782 H   0  0  0  0  0  0  0  0  0  0  0  0
    6.3937   25.8951   13.9249 H   0  0  0  0  0  0  0  0  0  0  0  0
    6.1419   18.2850   13.5315 H   0  0  0  0  0  0  0  0  0  0  0  0
    4.3785   24.5082   17.6460 H   0  0  0  0  0  0  0  0  0  0  0  0
    3.8249   19.5472   16.8986 H   0  0  0  0  0  0  0  0  0  0  0  0
    7.1546   22.2937   11.4825 H   0  0  0  0  0  0  0  0  0  0  0  0
    4.3958   23.6868   19.4148 H   0  0  0  0  0  0  0  0  0  0  0  0
    5.3912   22.9854   20.6679 H   0  0  0  0  0  0  0  0  0  0  0  0
    4.4440   21.9527   19.6241 H   0  0  0  0  0  0  0  0  0  0  0  0
    5.2030   22.7274   11.6053 H   0  0  0  0  0  0  0  0  0  0  0  0
    4.5922   24.3485   11.3775 H   0  0  0  0  0  0  0  0  0  0  0  0
    3.9385   23.3386   12.6448 H   0  0  0  0  0  0  0  0  0  0  0  0
    3.8607   21.0021   13.7089 H   0  0  0  0  0  0  0  0  0  0  0  0
    4.3909   21.4391   15.3155 H   0  0  0  0  0  0  0  0  0  0  0  0
    3.1306   20.2472   15.1054 H   0  0  0  0  0  0  0  0  0  0  0  0
    6.5189   25.5638   19.1212 H   0  0  0  0  0  0  0  0  0  0  0  0
    5.4508   27.5530   17.1360 H   0  0  0  0  0  0  0  0  0  0  0  0
    7.0845   26.9350   17.1804 H   0  0  0  0  0  0  0  0  0  0  0  0
    6.4885   27.9238   18.4919 H   0  0  0  0  0  0  0  0  0  0  0  0
    3.7268   26.6156   18.7589 H   0  0  0  0  0  0  0  0  0  0  0  0
    4.7981   27.0034   20.0836 H   0  0  0  0  0  0  0  0  0  0  0  0
    4.2087   25.3704   19.8860 H   0  0  0  0  0  0  0  0  0  0  0  0
    3.5467   25.8534   13.2111 H   0  0  0  0  0  0  0  0  0  0  0  0
    5.4695   28.0556   13.9060 H   0  0  0  0  0  0  0  0  0  0  0  0
    4.2172   27.4283   14.9508 H   0  0  0  0  0  0  0  0  0  0  0  0
    3.7884   28.2671   13.4792 H   0  0  0  0  0  0  0  0  0  0  0  0
    5.8670   26.9501   11.6472 H   0  0  0  0  0  0  0  0  0  0  0  0
    4.1783   27.1826   11.2635 H   0  0  0  0  0  0  0  0  0  0  0  0
    4.8803   25.5845   11.1842 H   0  0  0  0  0  0  0  0  0  0  0  0
    7.0109   22.1618   20.9878 H   0  0  0  0  0  0  0  0  0  0  0  0
    9.3753   20.5668   20.0363 H   0  0  0  0  0  0  0  0  0  0  0  0
    9.1334   21.1584   21.6625 H   0  0  0  0  0  0  0  0  0  0  0  0
    9.3651   22.2860   20.3481 H   0  0  0  0  0  0  0  0  0  0  0  0
    7.1964   19.2616   20.2279 H   0  0  0  0  0  0  0  0  0  0  0  0
    5.7327   20.1098   20.6653 H   0  0  0  0  0  0  0  0  0  0  0  0
    6.9967   19.8803   21.8497 H   0  0  0  0  0  0  0  0  0  0  0  0
    9.4455   22.7372   12.5678 H   0  0  0  0  0  0  0  0  0  0  0  0
    8.6013   20.2450   14.0214 H   0  0  0  0  0  0  0  0  0  0  0  0
    8.8987   21.8021   14.7565 H   0  0  0  0  0  0  0  0  0  0  0  0
   10.2119   20.9226   14.0113 H   0  0  0  0  0  0  0  0  0  0  0  0
    8.7154   20.0307   11.4867 H   0  0  0  0  0  0  0  0  0  0  0  0
   10.3234   20.7133   11.5256 H   0  0  0  0  0  0  0  0  0  0  0  0
    9.0878   21.4444   10.5297 H   0  0  0  0  0  0  0  0  0  0  0  0
    5.7641   17.8372   18.3763 H   0  0  0  0  0  0  0  0  0  0  0  0
    3.0756   17.1783   17.2070 H   0  0  0  0  0  0  0  0  0  0  0  0
    4.0608   16.1020   18.1682 H   0  0  0  0  0  0  0  0  0  0  0  0
    4.6163   16.6249   16.5963 H   0  0  0  0  0  0  0  0  0  0  0  0
    3.0348   18.8202   19.1563 H   0  0  0  0  0  0  0  0  0  0  0  0
    4.5481   19.3609   19.8422 H   0  0  0  0  0  0  0  0  0  0  0  0
    4.0216   17.7117   20.0784 H   0  0  0  0  0  0  0  0  0  0  0  0
    3.3860   18.7430   13.0843 H   0  0  0  0  0  0  0  0  0  0  0  0
    5.0408   19.1738   10.6144 H   0  0  0  0  0  0  0  0  0  0  0  0
    4.0395   20.3752   11.3937 H   0  0  0  0  0  0  0  0  0  0  0  0
    3.3059   18.9708   10.6571 H   0  0  0  0  0  0  0  0  0  0  0  0
    5.2987   16.8838   11.7059 H   0  0  0  0  0  0  0  0  0  0  0  0
    3.5586   16.7259   11.7275 H   0  0  0  0  0  0  0  0  0  0  0  0
    4.4690   16.5634   13.2100 H   0  0  0  0  0  0  0  0  0  0  0  0
  1 22  1  0  0  0  0
  1 16  1  0  0  0  0
  2 17  1  0  0  0  0
  2 23  1  0  0  0  0
  3 24  1  0  0  0  0
  3 18  1  0  0  0  0
  4 19  2  0  0  0  0
  5 20  2  0  0  0  0
  6 21  2  0  0  0  0
  7 22  2  0  0  0  0
  8 23  2  0  0  0  0
  9 24  2  0  0  0  0
 10 19  1  0  0  0  0
 10 13  1  0  0  0  0
 10 25  1  0  0  0  0
 11 26  1  0  0  0  0
 11 20  1  0  0  0  0
 11 14  1  0  0  0  0
 12 15  1  0  0  0  0
 12 27  1  0  0  0  0
 12 21  1  0  0  0  0
 13 23  1  0  0  0  0
 13 34  1  0  0  0  0
 13 46  1  6  0  0  0
 14 31  1  0  0  0  0
 14 22  1  0  0  0  0
 14 47  1  1  0  0  0
 15 24  1  0  0  0  0
 15 43  1  0  0  0  0
 15 48  1  1  0  0  0
 16 19  1  0  0  0  0
 16 28  1  0  0  0  0
 16 49  1  1  0  0  0
 17 21  1  0  0  0  0
 17 40  1  0  0  0  0
 17 50  1  6  0  0  0
 18 37  1  0  0  0  0
 18 20  1  0  0  0  0
 18 51  1  6  0  0  0
 25 52  1  0  0  0  0
 25 53  1  0  0  0  0
 25 54  1  0  0  0  0
 26 55  1  0  0  0  0
 26 56  1  0  0  0  0
 26 57  1  0  0  0  0
 27 58  1  0  0  0  0
 27 59  1  0  0  0  0
 27 60  1  0  0  0  0
 28 29  1  0  0  0  0
 28 30  1  0  0  0  0
 28 61  1  0  0  0  0
 29 62  1  0  0  0  0
 29 63  1  0  0  0  0
 29 64  1  0  0  0  0
 30 65  1  0  0  0  0
 30 66  1  0  0  0  0
 30 67  1  0  0  0  0
 31 33  1  0  0  0  0
 31 32  1  0  0  0  0
 31 68  1  0  0  0  0
 32 69  1  0  0  0  0
 32 70  1  0  0  0  0
 32 71  1  0  0  0  0
 33 72  1  0  0  0  0
 33 73  1  0  0  0  0
 33 74  1  0  0  0  0
 34 35  1  0  0  0  0
 34 36  1  0  0  0  0
 34 75  1  0  0  0  0
 35 76  1  0  0  0  0
 35 77  1  0  0  0  0
 35 78  1  0  0  0  0
 36 79  1  0  0  0  0
 36 80  1  0  0  0  0
 36 81  1  0  0  0  0
 37 39  1  0  0  0  0
 37 38  1  0  0  0  0
 37 82  1  0  0  0  0
 38 83  1  0  0  0  0
 38 84  1  0  0  0  0
 38 85  1  0  0  0  0
 39 86  1  0  0  0  0
 39 87  1  0  0  0  0
 39 88  1  0  0  0  0
 40 41  1  0  0  0  0
 40 42  1  0  0  0  0
 40 89  1  0  0  0  0
 41 90  1  0  0  0  0
 41 91  1  0  0  0  0
 41 92  1  0  0  0  0
 42 93  1  0  0  0  0
 42 94  1  0  0  0  0
 42 95  1  0  0  0  0
 43 44  1  0  0  0  0
 43 45  1  0  0  0  0
 43 96  1  0  0  0  0
 44 97  1  0  0  0  0
 44 98  1  0  0  0  0
 44 99  1  0  0  0  0
 45100  1  0  0  0  0
 45101  1  0  0  0  0
 45102  1  0  0  0  0
M  END
