@<TRIPOS>MOLECULE
Results/Site2/APO/ENB/ENB-Site2_1.pdb
 102 102 0 0 0
SMALL
GASTEIGER

@<TRIPOS>ATOM
      1  O          5.6110   25.3820   16.1760 O.3     1  UNL1       -0.4503
      2  O          5.4480   20.4460   17.7240 O.3     1  UNL1       -0.4503
      3  O          6.6200   21.2030   13.2060 O.3     1  UNL1       -0.4503
      4  O          7.2390   23.4710   16.8240 O.2     1  UNL1       -0.2715
      5  O          7.9360   23.9980   14.0120 O.2     1  UNL1       -0.2715
      6  O          6.3600   18.0190   15.7790 O.2     1  UNL1       -0.2715
      7  O          4.0470   23.9720   15.2360 O.2     1  UNL1       -0.2487
      8  O          7.4740   19.4320   18.1350 O.2     1  UNL1       -0.2487
      9  O          6.6060   19.8690   11.3360 O.2     1  UNL1       -0.2487
     10  N          6.1400   22.7730   18.7360 N.am    1  UNL1       -0.2878
     11  N          5.8360   24.1080   13.0320 N.am    1  UNL1       -0.2878
     12  N          5.0500   19.5780   14.6540 N.am    1  UNL1       -0.2878
     13  C          7.1200   21.6830   18.9250 C.3     1  UNL1        0.1250
     14  C          5.5020   25.3130   13.8200 C.3     1  UNL1        0.1250
     15  C          5.4710   19.0920   13.3230 C.3     1  UNL1        0.1250
     16  C          5.3870   24.8310   17.4920 C.3     1  UNL1        0.1808
     17  C          4.8360   19.2870   17.1330 C.3     1  UNL1        0.1808
     18  C          7.3930   22.2070   12.5220 C.3     1  UNL1        0.1808
     19  C          6.3320   23.6360   17.6470 C.2     1  UNL1        0.2571
     20  C          7.0910   23.5130   13.2530 C.2     1  UNL1        0.2571
     21  C          5.4980   18.9020   15.8020 C.2     1  UNL1        0.2571
     22  C          4.9400   24.8030   15.1360 C.2     1  UNL1        0.3288
     23  C          6.7200   20.3960   18.2060 C.2     1  UNL1        0.3288
     24  C          6.2790   20.0900   12.4980 C.2     1  UNL1        0.3288
     25  C          5.0170   22.8550   19.6740 C.3     1  UNL1        0.0041
     26  C          4.8240   23.5960   12.1020 C.3     1  UNL1        0.0041
     27  C          4.0400   20.6380   14.6990 C.3     1  UNL1        0.0041
     28  C          5.7320   25.9240   18.4920 C.3     1  UNL1       -0.0008
     29  C          6.2260   27.1780   17.7710 C.3     1  UNL1       -0.0588
     30  C          4.5260   26.2530   19.3710 C.3     1  UNL1       -0.0588
     31  C          4.5250   26.2850   13.1720 C.3     1  UNL1       -0.0177
     32  C          4.4980   27.6080   13.9340 C.3     1  UNL1       -0.0605
     33  C          4.8900   26.5180   11.7070 C.3     1  UNL1       -0.0605
     34  C          7.4290   21.3790   20.3900 C.3     1  UNL1       -0.0177
     35  C          8.9390   21.3450   20.6270 C.3     1  UNL1       -0.0605
     36  C          6.7910   20.0590   20.8150 C.3     1  UNL1       -0.0605
     37  C          8.8710   21.8360   12.6190 C.3     1  UNL1       -0.0008
     38  C          9.1680   21.1500   13.9520 C.3     1  UNL1       -0.0588
     39  C          9.2800   20.9390   11.4530 C.3     1  UNL1       -0.0588
     40  C          4.7650   18.1190   18.1170 C.3     1  UNL1       -0.0008
     41  C          4.0780   16.9160   17.4740 C.3     1  UNL1       -0.0588
     42  C          4.0380   18.5340   19.3940 C.3     1  UNL1       -0.0588
     43  C          4.2780   18.5740   12.5180 C.3     1  UNL1       -0.0177
     44  C          4.1570   19.3300   11.1970 C.3     1  UNL1       -0.0605
     45  C          4.4110   17.0750   12.2720 C.3     1  UNL1       -0.0605
     46 H           8.0162   22.0600   18.4782 H       1  UNL1        0.0619
     47 H           6.3937   25.8951   13.9249 H       1  UNL1        0.0619
     48 H           6.1419   18.2850   13.5315 H       1  UNL1        0.0619
     49 H           4.3785   24.5082   17.6460 H       1  UNL1        0.0835
     50 H           3.8249   19.5472   16.8986 H       1  UNL1        0.0835
     51 H           7.1546   22.2937   11.4825 H       1  UNL1        0.0835
     52 H           4.3958   23.6868   19.4148 H       1  UNL1        0.0429
     53 H           5.3912   22.9854   20.6679 H       1  UNL1        0.0429
     54 H           4.4440   21.9527   19.6241 H       1  UNL1        0.0429
     55 H           5.2030   22.7274   11.6053 H       1  UNL1        0.0429
     56 H           4.5922   24.3485   11.3775 H       1  UNL1        0.0429
     57 H           3.9385   23.3386   12.6448 H       1  UNL1        0.0429
     58 H           3.8607   21.0021   13.7089 H       1  UNL1        0.0429
     59 H           4.3909   21.4391   15.3155 H       1  UNL1        0.0429
     60 H           3.1306   20.2472   15.1054 H       1  UNL1        0.0429
     61 H           6.5189   25.5638   19.1212 H       1  UNL1        0.0336
     62 H           5.4508   27.5530   17.1360 H       1  UNL1        0.0234
     63 H           7.0845   26.9350   17.1804 H       1  UNL1        0.0234
     64 H           6.4885   27.9238   18.4919 H       1  UNL1        0.0234
     65 H           3.7268   26.6156   18.7589 H       1  UNL1        0.0234
     66 H           4.7981   27.0034   20.0836 H       1  UNL1        0.0234
     67 H           4.2087   25.3704   19.8860 H       1  UNL1        0.0234
     68 H           3.5467   25.8534   13.2111 H       1  UNL1        0.0319
     69 H           5.4695   28.0556   13.9060 H       1  UNL1        0.0233
     70 H           4.2172   27.4283   14.9508 H       1  UNL1        0.0233
     71 H           3.7884   28.2671   13.4792 H       1  UNL1        0.0233
     72 H           5.8670   26.9501   11.6472 H       1  UNL1        0.0233
     73 H           4.1783   27.1826   11.2635 H       1  UNL1        0.0233
     74 H           4.8803   25.5845   11.1842 H       1  UNL1        0.0233
     75 H           7.0109   22.1618   20.9878 H       1  UNL1        0.0319
     76 H           9.3753   20.5668   20.0363 H       1  UNL1        0.0233
     77 H           9.1334   21.1584   21.6625 H       1  UNL1        0.0233
     78 H           9.3651   22.2860   20.3481 H       1  UNL1        0.0233
     79 H           7.1964   19.2616   20.2279 H       1  UNL1        0.0233
     80 H           5.7327   20.1098   20.6653 H       1  UNL1        0.0233
     81 H           6.9967   19.8803   21.8497 H       1  UNL1        0.0233
     82 H           9.4455   22.7372   12.5678 H       1  UNL1        0.0336
     83 H           8.6013   20.2450   14.0214 H       1  UNL1        0.0234
     84 H           8.8987   21.8021   14.7565 H       1  UNL1        0.0234
     85 H          10.2119   20.9226   14.0113 H       1  UNL1        0.0234
     86 H           8.7154   20.0307   11.4867 H       1  UNL1        0.0234
     87 H          10.3234   20.7133   11.5256 H       1  UNL1        0.0234
     88 H           9.0878   21.4444   10.5297 H       1  UNL1        0.0234
     89 H           5.7641   17.8372   18.3763 H       1  UNL1        0.0336
     90 H           3.0756   17.1783   17.2070 H       1  UNL1        0.0234
     91 H           4.0608   16.1020   18.1682 H       1  UNL1        0.0234
     92 H           4.6163   16.6249   16.5963 H       1  UNL1        0.0234
     93 H           3.0348   18.8202   19.1563 H       1  UNL1        0.0234
     94 H           4.5481   19.3609   19.8422 H       1  UNL1        0.0234
     95 H           4.0216   17.7117   20.0784 H       1  UNL1        0.0234
     96 H           3.3860   18.7430   13.0843 H       1  UNL1        0.0319
     97 H           5.0408   19.1738   10.6144 H       1  UNL1        0.0233
     98 H           4.0395   20.3752   11.3937 H       1  UNL1        0.0233
     99 H           3.3059   18.9708   10.6571 H       1  UNL1        0.0233
    100 H           5.2987   16.8838   11.7059 H       1  UNL1        0.0233
    101 H           3.5586   16.7259   11.7275 H       1  UNL1        0.0233
    102 H           4.4690   16.5634   13.2100 H       1  UNL1        0.0233
@<TRIPOS>BOND
     1     1    22    1
     2     1    16    1
     3     2    17    1
     4     2    23    1
     5     3    24    1
     6     3    18    1
     7     4    19    2
     8     5    20    2
     9     6    21    2
    10     7    22    2
    11     8    23    2
    12     9    24    2
    13    10    19   am
    14    10    13    1
    15    10    25    1
    16    11    26    1
    17    11    20   am
    18    11    14    1
    19    12    15    1
    20    12    27    1
    21    12    21   am
    22    13    23    1
    23    13    34    1
    24    14    31    1
    25    14    22    1
    26    15    24    1
    27    15    43    1
    28    16    19    1
    29    16    28    1
    30    17    21    1
    31    17    40    1
    32    18    37    1
    33    18    20    1
    34    28    29    1
    35    28    30    1
    36    31    33    1
    37    31    32    1
    38    34    35    1
    39    34    36    1
    40    37    39    1
    41    37    38    1
    42    40    41    1
    43    40    42    1
    44    43    44    1
    45    43    45    1
    46    13    46    1
    47    14    47    1
    48    15    48    1
    49    16    49    1
    50    17    50    1
    51    18    51    1
    52    25    52    1
    53    25    53    1
    54    25    54    1
    55    26    55    1
    56    26    56    1
    57    26    57    1
    58    27    58    1
    59    27    59    1
    60    27    60    1
    61    28    61    1
    62    29    62    1
    63    29    63    1
    64    29    64    1
    65    30    65    1
    66    30    66    1
    67    30    67    1
    68    31    68    1
    69    32    69    1
    70    32    70    1
    71    32    71    1
    72    33    72    1
    73    33    73    1
    74    33    74    1
    75    34    75    1
    76    35    76    1
    77    35    77    1
    78    35    78    1
    79    36    79    1
    80    36    80    1
    81    36    81    1
    82    37    82    1
    83    38    83    1
    84    38    84    1
    85    38    85    1
    86    39    86    1
    87    39    87    1
    88    39    88    1
    89    40    89    1
    90    41    90    1
    91    41    91    1
    92    41    92    1
    93    42    93    1
    94    42    94    1
    95    42    95    1
    96    43    96    1
    97    44    97    1
    98    44    98    1
    99    44    99    1
   100    45   100    1
   101    45   101    1
   102    45   102    1
