@<TRIPOS>MOLECULE
Results/Site1/HOLO/ENA/ENA-Site1_1.pdb
 111 111 0 0 0
SMALL
GASTEIGER

@<TRIPOS>ATOM
      1  O         12.3210   -2.9900    2.8750 O.3     1  UNL1       -0.4503
      2  O          9.0870   -1.7050   -0.8210 O.3     1  UNL1       -0.4503
      3  O         12.1460   -5.4320   -0.3580 O.3     1  UNL1       -0.4503
      4  O         10.1860   -1.5580    2.5390 O.2     1  UNL1       -0.2715
      5  O         15.0750   -7.0840    0.4040 O.2     1  UNL1       -0.2715
      6  O          9.4190   -3.9960    0.4360 O.2     1  UNL1       -0.2715
      7  O         14.5680   -3.5040    2.9660 O.2     1  UNL1       -0.2487
      8  O         11.3280   -1.4100   -1.2930 O.2     1  UNL1       -0.2487
      9  O         12.1190   -7.7330   -0.3420 O.2     1  UNL1       -0.2487
     10  N         11.3590   -0.0850    1.1830 N.am    1  UNL1       -0.2878
     11  N         13.9620   -6.1060    2.1880 N.am    1  UNL1       -0.2878
     12  N          9.7400   -5.2910   -1.4630 N.am    1  UNL1       -0.2878
     13  C         10.1970    0.0650    0.2840 C.3     1  UNL1        0.1253
     14  C         12.8800   -5.2550    2.7270 C.3     1  UNL1        0.1253
     15  C         10.0460   -6.4990   -0.6630 C.3     1  UNL1        0.1253
     16  C         12.5610   -1.5680    2.7980 C.3     1  UNL1        0.1808
     17  C          9.0300   -2.8830   -1.6480 C.3     1  UNL1        0.1808
     18  C         13.5590   -5.3070   -0.1760 C.3     1  UNL1        0.1808
     19  C         11.2610   -1.0570    2.1900 C.2     1  UNL1        0.2571
     20  C         14.2550   -6.2580    0.8230 C.2     1  UNL1        0.2571
     21  C          9.4160   -4.0990   -0.7970 C.2     1  UNL1        0.2571
     22  C         13.3940   -3.8320    2.8750 C.2     1  UNL1        0.3288
     23  C         10.3020   -1.0880   -0.7060 C.2     1  UNL1        0.3288
     24  C         11.5560   -6.6540   -0.4790 C.2     1  UNL1        0.3288
     25  C         12.5810    0.6690    0.8960 C.3     1  UNL1        0.0041
     26  C         14.7850   -6.8420    3.1480 C.3     1  UNL1        0.0041
     27  C          9.8720   -5.4200   -2.9180 C.3     1  UNL1        0.0041
     28  C         12.7680   -0.9930    4.1870 C.3     1  UNL1       -0.0008
     29  C         11.6340   -0.0350    4.5480 C.3     1  UNL1       -0.0588
     30  C         14.1180   -0.2850    4.2820 C.3     1  UNL1       -0.0588
     31  C         12.2770   -5.7340    4.0460 C.3     1  UNL1       -0.0151
     32  C         12.8280   -4.8950    5.2010 C.3     1  UNL1       -0.0602
     33  C         10.7390   -5.6720    4.0430 C.3     1  UNL1       -0.0511
     34  C         10.1020   -6.4280    2.8860 C.3     1  UNL1       -0.0650
     35  C         10.0860    1.3830   -0.4690 C.3     1  UNL1       -0.0151
     36  C          9.8010    1.1120   -1.9490 C.3     1  UNL1       -0.0602
     37  C          8.9960    2.3020    0.1110 C.3     1  UNL1       -0.0511
     38  C          7.5890    1.9440   -0.3510 C.3     1  UNL1       -0.0650
     39  C         14.2100   -5.3770   -1.5590 C.3     1  UNL1       -0.0008
     40  C         13.1700   -5.7160   -2.6240 C.3     1  UNL1       -0.0588
     41  C         14.9080   -4.0590   -1.8900 C.3     1  UNL1       -0.0588
     42  C          7.5940   -3.0190   -2.1340 C.3     1  UNL1       -0.0008
     43  C          6.8430   -1.6970   -1.9750 C.3     1  UNL1       -0.0588
     44  C          6.8730   -4.1370   -1.3830 C.3     1  UNL1       -0.0588
     45  C          9.4170   -7.7740   -1.2230 C.3     1  UNL1       -0.0151
     46  C          7.8970   -7.6080   -1.3210 C.3     1  UNL1       -0.0602
     47  C          9.9870   -8.1580   -2.6020 C.3     1  UNL1       -0.0511
     48  C         10.5960   -9.5510   -2.6390 C.3     1  UNL1       -0.0650
     49 H           9.3141    0.0565    0.8884 H       1  UNL1        0.0619
     50 H          12.0791   -5.3105    2.0196 H       1  UNL1        0.0619
     51 H           9.5955   -6.3526    0.2964 H       1  UNL1        0.0619
     52 H          13.4319   -1.3014    2.2364 H       1  UNL1        0.0835
     53 H           9.6999   -2.8168   -2.4797 H       1  UNL1        0.0835
     54 H          13.7002   -4.3635    0.3085 H       1  UNL1        0.0835
     55 H          12.4007    1.3461    0.0873 H       1  UNL1        0.0429
     56 H          13.3633   -0.0091    0.6257 H       1  UNL1        0.0429
     57 H          12.8720    1.2210    1.7652 H       1  UNL1        0.0429
     58 H          15.5225   -7.4118    2.6224 H       1  UNL1        0.0429
     59 H          14.1644   -7.5013    3.7181 H       1  UNL1        0.0429
     60 H          15.2699   -6.1511    3.8055 H       1  UNL1        0.0429
     61 H           9.6261   -4.4880   -3.3825 H       1  UNL1        0.0429
     62 H           9.2070   -6.1806   -3.2704 H       1  UNL1        0.0429
     63 H          10.8792   -5.6856   -3.1626 H       1  UNL1        0.0429
     64 H          12.7621   -1.8016    4.8878 H       1  UNL1        0.0336
     65 H          11.6237    0.7819    3.8570 H       1  UNL1        0.0234
     66 H          11.7845    0.3383    5.5394 H       1  UNL1        0.0234
     67 H          10.6997   -0.5543    4.5004 H       1  UNL1        0.0234
     68 H          14.1438    0.5285    3.5874 H       1  UNL1        0.0234
     69 H          14.9007   -0.9768    4.0502 H       1  UNL1        0.0234
     70 H          14.2553    0.0893    5.2749 H       1  UNL1        0.0234
     71 H          12.5547   -6.7596    4.1719 H       1  UNL1        0.0321
     72 H          12.5449   -3.8721    5.0655 H       1  UNL1        0.0233
     73 H          13.8952   -4.9703    5.2191 H       1  UNL1        0.0233
     74 H          12.4292   -5.2560    6.1260 H       1  UNL1        0.0233
     75 H          10.4418   -4.6460    3.9814 H       1  UNL1        0.0266
     76 H          10.4040   -6.1387    4.9457 H       1  UNL1        0.0266
     77 H          10.4128   -5.9909    1.9601 H       1  UNL1        0.0230
     78 H           9.0365   -6.3720    2.9669 H       1  UNL1        0.0230
     79 H          10.4087   -7.4526    2.9175 H       1  UNL1        0.0230
     80 H          11.0216    1.8909   -0.3609 H       1  UNL1        0.0321
     81 H           8.8640    0.6043   -2.0446 H       1  UNL1        0.0233
     82 H          10.5802    0.5023   -2.3564 H       1  UNL1        0.0233
     83 H           9.7597    2.0400   -2.4800 H       1  UNL1        0.0233
     84 H           9.2055    3.3073   -0.1897 H       1  UNL1        0.0266
     85 H           9.0176    2.1831    1.1742 H       1  UNL1        0.0266
     86 H           7.5247    2.0503   -1.4138 H       1  UNL1        0.0230
     87 H           6.8829    2.5982    0.1162 H       1  UNL1        0.0230
     88 H           7.3713    0.9321   -0.0799 H       1  UNL1        0.0230
     89 H          14.9455   -6.1540   -1.5472 H       1  UNL1        0.0336
     90 H          12.4243   -4.9491   -2.6512 H       1  UNL1        0.0234
     91 H          12.7099   -6.6527   -2.3878 H       1  UNL1        0.0234
     92 H          13.6469   -5.7838   -3.5794 H       1  UNL1        0.0234
     93 H          14.1875   -3.2681   -1.9065 H       1  UNL1        0.0234
     94 H          15.3766   -4.1346   -2.8489 H       1  UNL1        0.0234
     95 H          15.6488   -3.8511   -1.1464 H       1  UNL1        0.0234
     96 H           7.6165   -3.2716   -3.1735 H       1  UNL1        0.0336
     97 H           6.8102   -1.4277   -0.9400 H       1  UNL1        0.0234
     98 H           5.8457   -1.8064   -2.3468 H       1  UNL1        0.0234
     99 H           7.3475   -0.9316   -2.5269 H       1  UNL1        0.0234
    100 H           6.8402   -3.9023   -0.3396 H       1  UNL1        0.0234
    101 H           7.3981   -5.0584   -1.5250 H       1  UNL1        0.0234
    102 H           5.8757   -4.2334   -1.7584 H       1  UNL1        0.0234
    103 H           9.6576   -8.5667   -0.5458 H       1  UNL1        0.0321
    104 H           7.6680   -6.8135   -2.0001 H       1  UNL1        0.0233
    105 H           7.5004   -7.3765   -0.3545 H       1  UNL1        0.0233
    106 H           7.4610   -8.5181   -1.6768 H       1  UNL1        0.0233
    107 H          10.7449   -7.4498   -2.8646 H       1  UNL1        0.0266
    108 H           9.1703   -8.1526   -3.2932 H       1  UNL1        0.0266
    109 H          11.4201   -9.5982   -1.9582 H       1  UNL1        0.0230
    110 H          10.9393   -9.7640   -3.6298 H       1  UNL1        0.0230
    111 H           9.8571  -10.2710   -2.3551 H       1  UNL1        0.0230
@<TRIPOS>BOND
     1     1    16    1
     2     1    22    1
     3     2    17    1
     4     2    23    1
     5     3    24    1
     6     3    18    1
     7     4    19    2
     8     5    20    2
     9     6    21    2
    10     7    22    2
    11     8    23    2
    12     9    24    2
    13    10    13    1
    14    10    25    1
    15    10    19   am
    16    11    20   am
    17    11    14    1
    18    11    26    1
    19    12    27    1
    20    12    21   am
    21    12    15    1
    22    13    23    1
    23    13    35    1
    24    14    22    1
    25    14    31    1
    26    15    45    1
    27    15    24    1
    28    16    19    1
    29    16    28    1
    30    17    42    1
    31    17    21    1
    32    18    39    1
    33    18    20    1
    34    28    30    1
    35    28    29    1
    36    31    33    1
    37    31    32    1
    38    33    34    1
    39    35    36    1
    40    35    37    1
    41    37    38    1
    42    39    40    1
    43    39    41    1
    44    42    43    1
    45    42    44    1
    46    45    47    1
    47    45    46    1
    48    47    48    1
    49    13    49    1
    50    14    50    1
    51    15    51    1
    52    16    52    1
    53    17    53    1
    54    18    54    1
    55    25    55    1
    56    25    56    1
    57    25    57    1
    58    26    58    1
    59    26    59    1
    60    26    60    1
    61    27    61    1
    62    27    62    1
    63    27    63    1
    64    28    64    1
    65    29    65    1
    66    29    66    1
    67    29    67    1
    68    30    68    1
    69    30    69    1
    70    30    70    1
    71    31    71    1
    72    32    72    1
    73    32    73    1
    74    32    74    1
    75    33    75    1
    76    33    76    1
    77    34    77    1
    78    34    78    1
    79    34    79    1
    80    35    80    1
    81    36    81    1
    82    36    82    1
    83    36    83    1
    84    37    84    1
    85    37    85    1
    86    38    86    1
    87    38    87    1
    88    38    88    1
    89    39    89    1
    90    40    90    1
    91    40    91    1
    92    40    92    1
    93    41    93    1
    94    41    94    1
    95    41    95    1
    96    42    96    1
    97    43    97    1
    98    43    98    1
    99    43    99    1
   100    44   100    1
   101    44   101    1
   102    44   102    1
   103    45   103    1
   104    46   104    1
   105    46   105    1
   106    46   106    1
   107    47   107    1
   108    47   108    1
   109    48   109    1
   110    48   110    1
   111    48   111    1
