Results/Site1/HOLO/ENA/ENA-Site1_1.pdb
 OpenBabel08312517003D

111111  0  0  1  0  0  0  0  0999 V2000
   12.3210   -2.9900    2.8750 O   0  0  0  0  0  0  0  0  0  0  0  0
    9.0870   -1.7050   -0.8210 O   0  0  0  0  0  0  0  0  0  0  0  0
   12.1460   -5.4320   -0.3580 O   0  0  0  0  0  0  0  0  0  0  0  0
   10.1860   -1.5580    2.5390 O   0  0  0  0  0  0  0  0  0  0  0  0
   15.0750   -7.0840    0.4040 O   0  0  0  0  0  0  0  0  0  0  0  0
    9.4190   -3.9960    0.4360 O   0  0  0  0  0  0  0  0  0  0  0  0
   14.5680   -3.5040    2.9660 O   0  0  0  0  0  0  0  0  0  0  0  0
   11.3280   -1.4100   -1.2930 O   0  0  0  0  0  0  0  0  0  0  0  0
   12.1190   -7.7330   -0.3420 O   0  0  0  0  0  0  0  0  0  0  0  0
   11.3590   -0.0850    1.1830 N   0  0  0  0  0  0  0  0  0  0  0  0
   13.9620   -6.1060    2.1880 N   0  0  0  0  0  0  0  0  0  0  0  0
    9.7400   -5.2910   -1.4630 N   0  0  0  0  0  0  0  0  0  0  0  0
   10.1970    0.0650    0.2840 C   0  0  2  0  0  0  0  0  0  0  0  0
   12.8800   -5.2550    2.7270 C   0  0  2  0  0  0  0  0  0  0  0  0
   10.0460   -6.4990   -0.6630 C   0  0  2  0  0  0  0  0  0  0  0  0
   12.5610   -1.5680    2.7980 C   0  0  1  0  0  0  0  0  0  0  0  0
    9.0300   -2.8830   -1.6480 C   0  0  1  0  0  0  0  0  0  0  0  0
   13.5590   -5.3070   -0.1760 C   0  0  1  0  0  0  0  0  0  0  0  0
   11.2610   -1.0570    2.1900 C   0  0  0  0  0  0  0  0  0  0  0  0
   14.2550   -6.2580    0.8230 C   0  0  0  0  0  0  0  0  0  0  0  0
    9.4160   -4.0990   -0.7970 C   0  0  0  0  0  0  0  0  0  0  0  0
   13.3940   -3.8320    2.8750 C   0  0  0  0  0  0  0  0  0  0  0  0
   10.3020   -1.0880   -0.7060 C   0  0  0  0  0  0  0  0  0  0  0  0
   11.5560   -6.6540   -0.4790 C   0  0  0  0  0  0  0  0  0  0  0  0
   12.5810    0.6690    0.8960 C   0  0  0  0  0  0  0  0  0  0  0  0
   14.7850   -6.8420    3.1480 C   0  0  0  0  0  0  0  0  0  0  0  0
    9.8720   -5.4200   -2.9180 C   0  0  0  0  0  0  0  0  0  0  0  0
   12.7680   -0.9930    4.1870 C   0  0  0  0  0  0  0  0  0  0  0  0
   11.6340   -0.0350    4.5480 C   0  0  0  0  0  0  0  0  0  0  0  0
   14.1180   -0.2850    4.2820 C   0  0  0  0  0  0  0  0  0  0  0  0
   12.2770   -5.7340    4.0460 C   0  0  1  0  0  0  0  0  0  0  0  0
   12.8280   -4.8950    5.2010 C   0  0  0  0  0  0  0  0  0  0  0  0
   10.7390   -5.6720    4.0430 C   0  0  0  0  0  0  0  0  0  0  0  0
   10.1020   -6.4280    2.8860 C   0  0  0  0  0  0  0  0  0  0  0  0
   10.0860    1.3830   -0.4690 C   0  0  1  0  0  0  0  0  0  0  0  0
    9.8010    1.1120   -1.9490 C   0  0  0  0  0  0  0  0  0  0  0  0
    8.9960    2.3020    0.1110 C   0  0  0  0  0  0  0  0  0  0  0  0
    7.5890    1.9440   -0.3510 C   0  0  0  0  0  0  0  0  0  0  0  0
   14.2100   -5.3770   -1.5590 C   0  0  0  0  0  0  0  0  0  0  0  0
   13.1700   -5.7160   -2.6240 C   0  0  0  0  0  0  0  0  0  0  0  0
   14.9080   -4.0590   -1.8900 C   0  0  0  0  0  0  0  0  0  0  0  0
    7.5940   -3.0190   -2.1340 C   0  0  0  0  0  0  0  0  0  0  0  0
    6.8430   -1.6970   -1.9750 C   0  0  0  0  0  0  0  0  0  0  0  0
    6.8730   -4.1370   -1.3830 C   0  0  0  0  0  0  0  0  0  0  0  0
    9.4170   -7.7740   -1.2230 C   0  0  1  0  0  0  0  0  0  0  0  0
    7.8970   -7.6080   -1.3210 C   0  0  0  0  0  0  0  0  0  0  0  0
    9.9870   -8.1580   -2.6020 C   0  0  0  0  0  0  0  0  0  0  0  0
   10.5960   -9.5510   -2.6390 C   0  0  0  0  0  0  0  0  0  0  0  0
    9.3141    0.0565    0.8884 H   0  0  0  0  0  0  0  0  0  0  0  0
   12.0791   -5.3105    2.0196 H   0  0  0  0  0  0  0  0  0  0  0  0
    9.5955   -6.3526    0.2964 H   0  0  0  0  0  0  0  0  0  0  0  0
   13.4319   -1.3014    2.2364 H   0  0  0  0  0  0  0  0  0  0  0  0
    9.6999   -2.8168   -2.4797 H   0  0  0  0  0  0  0  0  0  0  0  0
   13.7002   -4.3635    0.3085 H   0  0  0  0  0  0  0  0  0  0  0  0
   12.4007    1.3461    0.0873 H   0  0  0  0  0  0  0  0  0  0  0  0
   13.3633   -0.0091    0.6257 H   0  0  0  0  0  0  0  0  0  0  0  0
   12.8720    1.2210    1.7652 H   0  0  0  0  0  0  0  0  0  0  0  0
   15.5225   -7.4118    2.6224 H   0  0  0  0  0  0  0  0  0  0  0  0
   14.1644   -7.5013    3.7181 H   0  0  0  0  0  0  0  0  0  0  0  0
   15.2699   -6.1511    3.8055 H   0  0  0  0  0  0  0  0  0  0  0  0
    9.6261   -4.4880   -3.3825 H   0  0  0  0  0  0  0  0  0  0  0  0
    9.2070   -6.1806   -3.2704 H   0  0  0  0  0  0  0  0  0  0  0  0
   10.8792   -5.6856   -3.1626 H   0  0  0  0  0  0  0  0  0  0  0  0
   12.7621   -1.8016    4.8878 H   0  0  0  0  0  0  0  0  0  0  0  0
   11.6237    0.7819    3.8570 H   0  0  0  0  0  0  0  0  0  0  0  0
   11.7845    0.3383    5.5394 H   0  0  0  0  0  0  0  0  0  0  0  0
   10.6997   -0.5543    4.5004 H   0  0  0  0  0  0  0  0  0  0  0  0
   14.1438    0.5285    3.5874 H   0  0  0  0  0  0  0  0  0  0  0  0
   14.9007   -0.9768    4.0502 H   0  0  0  0  0  0  0  0  0  0  0  0
   14.2553    0.0893    5.2749 H   0  0  0  0  0  0  0  0  0  0  0  0
   12.5547   -6.7596    4.1719 H   0  0  0  0  0  0  0  0  0  0  0  0
   12.5449   -3.8721    5.0655 H   0  0  0  0  0  0  0  0  0  0  0  0
   13.8952   -4.9703    5.2191 H   0  0  0  0  0  0  0  0  0  0  0  0
   12.4292   -5.2560    6.1260 H   0  0  0  0  0  0  0  0  0  0  0  0
   10.4418   -4.6460    3.9814 H   0  0  0  0  0  0  0  0  0  0  0  0
   10.4040   -6.1387    4.9457 H   0  0  0  0  0  0  0  0  0  0  0  0
   10.4128   -5.9909    1.9601 H   0  0  0  0  0  0  0  0  0  0  0  0
    9.0365   -6.3720    2.9669 H   0  0  0  0  0  0  0  0  0  0  0  0
   10.4087   -7.4526    2.9175 H   0  0  0  0  0  0  0  0  0  0  0  0
   11.0216    1.8909   -0.3609 H   0  0  0  0  0  0  0  0  0  0  0  0
    8.8640    0.6043   -2.0446 H   0  0  0  0  0  0  0  0  0  0  0  0
   10.5802    0.5023   -2.3564 H   0  0  0  0  0  0  0  0  0  0  0  0
    9.7597    2.0400   -2.4800 H   0  0  0  0  0  0  0  0  0  0  0  0
    9.2055    3.3073   -0.1897 H   0  0  0  0  0  0  0  0  0  0  0  0
    9.0176    2.1831    1.1742 H   0  0  0  0  0  0  0  0  0  0  0  0
    7.5247    2.0503   -1.4138 H   0  0  0  0  0  0  0  0  0  0  0  0
    6.8829    2.5982    0.1162 H   0  0  0  0  0  0  0  0  0  0  0  0
    7.3713    0.9321   -0.0799 H   0  0  0  0  0  0  0  0  0  0  0  0
   14.9455   -6.1540   -1.5472 H   0  0  0  0  0  0  0  0  0  0  0  0
   12.4243   -4.9491   -2.6512 H   0  0  0  0  0  0  0  0  0  0  0  0
   12.7099   -6.6527   -2.3878 H   0  0  0  0  0  0  0  0  0  0  0  0
   13.6469   -5.7838   -3.5794 H   0  0  0  0  0  0  0  0  0  0  0  0
   14.1875   -3.2681   -1.9065 H   0  0  0  0  0  0  0  0  0  0  0  0
   15.3766   -4.1346   -2.8489 H   0  0  0  0  0  0  0  0  0  0  0  0
   15.6488   -3.8511   -1.1464 H   0  0  0  0  0  0  0  0  0  0  0  0
    7.6165   -3.2716   -3.1735 H   0  0  0  0  0  0  0  0  0  0  0  0
    6.8102   -1.4277   -0.9400 H   0  0  0  0  0  0  0  0  0  0  0  0
    5.8457   -1.8064   -2.3468 H   0  0  0  0  0  0  0  0  0  0  0  0
    7.3475   -0.9316   -2.5269 H   0  0  0  0  0  0  0  0  0  0  0  0
    6.8402   -3.9023   -0.3396 H   0  0  0  0  0  0  0  0  0  0  0  0
    7.3981   -5.0584   -1.5250 H   0  0  0  0  0  0  0  0  0  0  0  0
    5.8757   -4.2334   -1.7584 H   0  0  0  0  0  0  0  0  0  0  0  0
    9.6576   -8.5667   -0.5458 H   0  0  0  0  0  0  0  0  0  0  0  0
    7.6680   -6.8135   -2.0001 H   0  0  0  0  0  0  0  0  0  0  0  0
    7.5004   -7.3765   -0.3545 H   0  0  0  0  0  0  0  0  0  0  0  0
    7.4610   -8.5181   -1.6768 H   0  0  0  0  0  0  0  0  0  0  0  0
   10.7449   -7.4498   -2.8646 H   0  0  0  0  0  0  0  0  0  0  0  0
    9.1703   -8.1526   -3.2932 H   0  0  0  0  0  0  0  0  0  0  0  0
   11.4201   -9.5982   -1.9582 H   0  0  0  0  0  0  0  0  0  0  0  0
   10.9393   -9.7640   -3.6298 H   0  0  0  0  0  0  0  0  0  0  0  0
    9.8571  -10.2710   -2.3551 H   0  0  0  0  0  0  0  0  0  0  0  0
  1 16  1  0  0  0  0
  1 22  1  0  0  0  0
  2 17  1  0  0  0  0
  2 23  1  0  0  0  0
  3 24  1  0  0  0  0
  3 18  1  0  0  0  0
  4 19  2  0  0  0  0
  5 20  2  0  0  0  0
  6 21  2  0  0  0  0
  7 22  2  0  0  0  0
  8 23  2  0  0  0  0
  9 24  2  0  0  0  0
 10 13  1  0  0  0  0
 10 25  1  0  0  0  0
 10 19  1  0  0  0  0
 11 20  1  0  0  0  0
 11 14  1  0  0  0  0
 11 26  1  0  0  0  0
 12 27  1  0  0  0  0
 12 21  1  0  0  0  0
 12 15  1  0  0  0  0
 13 23  1  0  0  0  0
 13 35  1  0  0  0  0
 13 49  1  1  0  0  0
 14 22  1  0  0  0  0
 14 31  1  0  0  0  0
 14 50  1  6  0  0  0
 15 45  1  0  0  0  0
 15 24  1  0  0  0  0
 15 51  1  1  0  0  0
 16 19  1  0  0  0  0
 16 28  1  0  0  0  0
 16 52  1  6  0  0  0
 17 42  1  0  0  0  0
 17 21  1  0  0  0  0
 17 53  1  6  0  0  0
 18 39  1  0  0  0  0
 18 20  1  0  0  0  0
 18 54  1  1  0  0  0
 25 55  1  0  0  0  0
 25 56  1  0  0  0  0
 25 57  1  0  0  0  0
 26 58  1  0  0  0  0
 26 59  1  0  0  0  0
 26 60  1  0  0  0  0
 27 61  1  0  0  0  0
 27 62  1  0  0  0  0
 27 63  1  0  0  0  0
 28 30  1  0  0  0  0
 28 29  1  0  0  0  0
 28 64  1  0  0  0  0
 29 65  1  0  0  0  0
 29 66  1  0  0  0  0
 29 67  1  0  0  0  0
 30 68  1  0  0  0  0
 30 69  1  0  0  0  0
 30 70  1  0  0  0  0
 31 33  1  0  0  0  0
 31 32  1  0  0  0  0
 31 71  1  1  0  0  0
 32 72  1  0  0  0  0
 32 73  1  0  0  0  0
 32 74  1  0  0  0  0
 33 34  1  0  0  0  0
 33 75  1  0  0  0  0
 33 76  1  0  0  0  0
 34 77  1  0  0  0  0
 34 78  1  0  0  0  0
 34 79  1  0  0  0  0
 35 36  1  0  0  0  0
 35 37  1  0  0  0  0
 35 80  1  1  0  0  0
 36 81  1  0  0  0  0
 36 82  1  0  0  0  0
 36 83  1  0  0  0  0
 37 38  1  0  0  0  0
 37 84  1  0  0  0  0
 37 85  1  0  0  0  0
 38 86  1  0  0  0  0
 38 87  1  0  0  0  0
 38 88  1  0  0  0  0
 39 40  1  0  0  0  0
 39 41  1  0  0  0  0
 39 89  1  0  0  0  0
 40 90  1  0  0  0  0
 40 91  1  0  0  0  0
 40 92  1  0  0  0  0
 41 93  1  0  0  0  0
 41 94  1  0  0  0  0
 41 95  1  0  0  0  0
 42 43  1  0  0  0  0
 42 44  1  0  0  0  0
 42 96  1  0  0  0  0
 43 97  1  0  0  0  0
 43 98  1  0  0  0  0
 43 99  1  0  0  0  0
 44100  1  0  0  0  0
 44101  1  0  0  0  0
 44102  1  0  0  0  0
 45 47  1  0  0  0  0
 45 46  1  0  0  0  0
 45103  1  1  0  0  0
 46104  1  0  0  0  0
 46105  1  0  0  0  0
 46106  1  0  0  0  0
 47 48  1  0  0  0  0
 47107  1  0  0  0  0
 47108  1  0  0  0  0
 48109  1  0  0  0  0
 48110  1  0  0  0  0
 48111  1  0  0  0  0
M  END
