@<TRIPOS>MOLECULE
Results/Site2/HOLO/RWF/RWF-Site2_1.pdb
 39 41 0 0 0
SMALL
GASTEIGER

@<TRIPOS>ATOM
      1  C         10.9320    2.1210  -13.2020 C.ar    1  UNL1        0.0593
      2  C          9.3540    3.8110  -14.6990 C.ar    1  UNL1        0.3446
      3  C          9.1500    2.4290  -14.8300 C.ar    1  UNL1        0.0866
      4  C          9.9160    1.5600  -14.1050 C.ar    1  UNL1        0.1381
      5  C         11.7510    1.2920  -12.4330 C.ar    1  UNL1       -0.0475
      6  C         12.6930    1.8490  -11.5980 C.ar    1  UNL1       -0.0609
      7  C         12.8310    3.2270  -11.5190 C.ar    1  UNL1       -0.0582
      8  C         12.0300    4.0570  -12.2740 C.ar    1  UNL1       -0.0185
      9  C         11.0730    3.5150  -13.1220 C.ar    1  UNL1        0.1426
     10  O         10.2810    4.3140  -13.8680 O.2     1  UNL1       -0.4217
     11  O          8.6640    4.5760  -15.3500 O.2     1  UNL1       -0.2447
     12  O          9.7450    0.2220  -14.2140 O.3     1  UNL1       -0.5055
     13  H          9.8000    0.0090  -15.1540 H       1  UNL1        0.2922
     14  C          8.0950    1.9050  -15.7690 C.3     1  UNL1        0.0262
     15  C          7.9990    2.8220  -16.9890 C.3     1  UNL1        0.0167
     16  C          6.9910    2.2620  -17.9610 C.2     1  UNL1        0.1312
     17  C          5.7610    3.0570  -18.3120 C.3     1  UNL1       -0.0060
     18  O          7.1700    1.1770  -18.4560 O.2     1  UNL1       -0.2977
     19  C          6.7660    1.8700  -15.0620 C.ar    1  UNL1       -0.0392
     20  C          6.0750    0.6770  -14.9480 C.ar    1  UNL1       -0.0580
     21  C          4.8560    0.6440  -14.2980 C.ar    1  UNL1       -0.0615
     22  C          4.3260    1.8020  -13.7630 C.ar    1  UNL1       -0.0617
     23  C          5.0170    2.9930  -13.8760 C.ar    1  UNL1       -0.0615
     24  C          6.2390    3.0260  -14.5210 C.ar    1  UNL1       -0.0580
     25 H          11.6506    0.2665  -12.4903 H       1  UNL1        0.0626
     26 H          13.2994    1.2386  -11.0281 H       1  UNL1        0.0618
     27 H          13.5398    3.6346  -10.8893 H       1  UNL1        0.0619
     28 H          12.1415    5.0809  -12.2090 H       1  UNL1        0.0654
     29 H           8.3570    0.9167  -16.0845 H       1  UNL1        0.0405
     30 H           8.9557    2.8849  -17.4640 H       1  UNL1        0.0351
     31 H           7.6903    3.7981  -16.6780 H       1  UNL1        0.0351
     32 H           5.7731    3.9858  -17.7809 H       1  UNL1        0.0306
     33 H           4.8878    2.5018  -18.0398 H       1  UNL1        0.0306
     34 H           5.7483    3.2482  -19.3647 H       1  UNL1        0.0306
     35 H           6.4699   -0.1883  -15.3484 H       1  UNL1        0.0620
     36 H           4.3413   -0.2463  -14.2122 H       1  UNL1        0.0618
     37 H           3.4147    1.7775  -13.2793 H       1  UNL1        0.0618
     38 H           4.6204    3.8588  -13.4784 H       1  UNL1        0.0618
     39 H           6.7577    3.9148  -14.5983 H       1  UNL1        0.0620
@<TRIPOS>BOND
     1     1     4   ar
     2     1     9   ar
     3     1     5   ar
     4     2    11    2
     5     2     3   ar
     6     2    10   ar
     7     3    14    1
     8     3     4   ar
     9     4    12    1
    10     5     6   ar
    11     6     7   ar
    12     7     8   ar
    13     8     9   ar
    14     9    10   ar
    15    12    13    1
    16    14    15    1
    17    14    19    1
    18    15    16    1
    19    16    18    2
    20    16    17    1
    21    19    20   ar
    22    19    24   ar
    23    20    21   ar
    24    21    22   ar
    25    22    23   ar
    26    23    24   ar
    27     5    25    1
    28     6    26    1
    29     7    27    1
    30     8    28    1
    31    14    29    1
    32    15    30    1
    33    15    31    1
    34    17    32    1
    35    17    33    1
    36    17    34    1
    37    20    35    1
    38    21    36    1
    39    22    37    1
    40    23    38    1
    41    24    39    1
