@<TRIPOS>MOLECULE
Results/Site2/HOLO/RWF/RWF-Site2_1.pdb
 39 41 0 0 0
SMALL
GASTEIGER

@<TRIPOS>ATOM
      1  C         10.9060    2.1220  -13.2230 C.ar    1  UNL1        0.0593
      2  C          9.2830    3.7870  -14.7000 C.ar    1  UNL1        0.3446
      3  C          9.1120    2.4020  -14.8430 C.ar    1  UNL1        0.0866
      4  C          9.9000    1.5450  -14.1280 C.ar    1  UNL1        0.1381
      5  C         11.7460    1.3050  -12.4640 C.ar    1  UNL1       -0.0475
      6  C         12.6770    1.8770  -11.6270 C.ar    1  UNL1       -0.0609
      7  C         12.7830    3.2580  -11.5360 C.ar    1  UNL1       -0.0582
      8  C         11.9600    4.0750  -12.2800 C.ar    1  UNL1       -0.0185
      9  C         11.0140    3.5180  -13.1310 C.ar    1  UNL1        0.1426
     10  O         10.2010    4.3050  -13.8680 O.2     1  UNL1       -0.4217
     11  O          8.5740    4.5420  -15.3420 O.2     1  UNL1       -0.2447
     12  O          9.7600    0.2050  -14.2490 O.3     1  UNL1       -0.5055
     13  H          9.6680    0.0170  -15.1920 H       1  UNL1        0.2922
     14  C          8.0660    1.8620  -15.7830 C.3     1  UNL1        0.0262
     15  C          7.9650    2.7710  -17.0090 C.3     1  UNL1        0.0167
     16  C          6.9940    2.1780  -17.9970 C.2     1  UNL1        0.1312
     17  C          5.7430    2.9310  -18.3700 C.3     1  UNL1       -0.0060
     18  O          7.2170    1.0990  -18.4890 O.2     1  UNL1       -0.2977
     19  C          6.7350    1.8160  -15.0820 C.ar    1  UNL1       -0.0392
     20  C          6.2150    2.9620  -14.5080 C.ar    1  UNL1       -0.0580
     21  C          4.9930    2.9200  -13.8640 C.ar    1  UNL1       -0.0615
     22  C          4.2900    1.7320  -13.7940 C.ar    1  UNL1       -0.0617
     23  C          4.8090    0.5880  -14.3670 C.ar    1  UNL1       -0.0615
     24  C          6.0290    0.6310  -15.0160 C.ar    1  UNL1       -0.0580
     25 H          11.6693    0.2780  -12.5301 H       1  UNL1        0.0626
     26 H          13.2993    1.2761  -11.0643 H       1  UNL1        0.0618
     27 H          13.4846    3.6766  -10.9054 H       1  UNL1        0.0619
     28 H          12.0464    5.1006  -12.2050 H       1  UNL1        0.0654
     29 H           8.3401    0.8748  -16.0916 H       1  UNL1        0.0405
     30 H           8.9282    2.8612  -17.4662 H       1  UNL1        0.0351
     31 H           7.6205    3.7382  -16.7078 H       1  UNL1        0.0351
     32 H           5.7143    3.8599  -17.8397 H       1  UNL1        0.0306
     33 H           4.8846    2.3465  -18.1122 H       1  UNL1        0.0306
     34 H           5.7418    3.1213  -19.4229 H       1  UNL1        0.0306
     35 H           6.7399    3.8490  -14.5607 H       1  UNL1        0.0620
     36 H           4.6055    3.7752  -13.4356 H       1  UNL1        0.0618
     37 H           3.3773    1.7001  -13.3135 H       1  UNL1        0.0618
     38 H           4.2859   -0.2998  -14.3108 H       1  UNL1        0.0618
     39 H           6.4122   -0.2227  -15.4512 H       1  UNL1        0.0620
@<TRIPOS>BOND
     1     1     4   ar
     2     1     9   ar
     3     1     5   ar
     4     2    11    2
     5     2     3   ar
     6     2    10   ar
     7     3    14    1
     8     3     4   ar
     9     4    12    1
    10     5     6   ar
    11     6     7   ar
    12     7     8   ar
    13     8     9   ar
    14     9    10   ar
    15    12    13    1
    16    14    15    1
    17    14    19    1
    18    15    16    1
    19    16    18    2
    20    16    17    1
    21    19    24   ar
    22    19    20   ar
    23    20    21   ar
    24    21    22   ar
    25    22    23   ar
    26    23    24   ar
    27     5    25    1
    28     6    26    1
    29     7    27    1
    30     8    28    1
    31    14    29    1
    32    15    30    1
    33    15    31    1
    34    17    32    1
    35    17    33    1
    36    17    34    1
    37    20    35    1
    38    21    36    1
    39    22    37    1
    40    23    38    1
    41    24    39    1
