Results/Site2/HOLO/RWF/RWF-Site2_1.pdb
 OpenBabel08312517003D

 39 41  0  0  1  0  0  0  0  0999 V2000
   10.9320    2.1210  -13.2020 C   0  0  0  0  0  0  0  0  0  0  0  0
    9.3540    3.8110  -14.6990 C   0  0  0  0  0  0  0  0  0  0  0  0
    9.1500    2.4290  -14.8300 C   0  0  0  0  0  0  0  0  0  0  0  0
    9.9160    1.5600  -14.1050 C   0  0  0  0  0  0  0  0  0  0  0  0
   11.7510    1.2920  -12.4330 C   0  0  0  0  0  0  0  0  0  0  0  0
   12.6930    1.8490  -11.5980 C   0  0  0  0  0  0  0  0  0  0  0  0
   12.8310    3.2270  -11.5190 C   0  0  0  0  0  0  0  0  0  0  0  0
   12.0300    4.0570  -12.2740 C   0  0  0  0  0  0  0  0  0  0  0  0
   11.0730    3.5150  -13.1220 C   0  0  0  0  0  0  0  0  0  0  0  0
   10.2810    4.3140  -13.8680 O   0  0  0  0  0  0  0  0  0  0  0  0
    8.6640    4.5760  -15.3500 O   0  0  0  0  0  0  0  0  0  0  0  0
    9.7450    0.2220  -14.2140 O   0  0  0  0  0  0  0  0  0  0  0  0
    9.8000    0.0090  -15.1540 H   0  0  0  0  0  0  0  0  0  0  0  0
    8.0950    1.9050  -15.7690 C   0  0  2  0  0  0  0  0  0  0  0  0
    7.9990    2.8220  -16.9890 C   0  0  0  0  0  0  0  0  0  0  0  0
    6.9910    2.2620  -17.9610 C   0  0  0  0  0  0  0  0  0  0  0  0
    5.7610    3.0570  -18.3120 C   0  0  0  0  0  0  0  0  0  0  0  0
    7.1700    1.1770  -18.4560 O   0  0  0  0  0  0  0  0  0  0  0  0
    6.7660    1.8700  -15.0620 C   0  0  0  0  0  0  0  0  0  0  0  0
    6.0750    0.6770  -14.9480 C   0  0  0  0  0  0  0  0  0  0  0  0
    4.8560    0.6440  -14.2980 C   0  0  0  0  0  0  0  0  0  0  0  0
    4.3260    1.8020  -13.7630 C   0  0  0  0  0  0  0  0  0  0  0  0
    5.0170    2.9930  -13.8760 C   0  0  0  0  0  0  0  0  0  0  0  0
    6.2390    3.0260  -14.5210 C   0  0  0  0  0  0  0  0  0  0  0  0
   11.6506    0.2665  -12.4903 H   0  0  0  0  0  0  0  0  0  0  0  0
   13.2994    1.2386  -11.0281 H   0  0  0  0  0  0  0  0  0  0  0  0
   13.5398    3.6346  -10.8893 H   0  0  0  0  0  0  0  0  0  0  0  0
   12.1415    5.0809  -12.2090 H   0  0  0  0  0  0  0  0  0  0  0  0
    8.3570    0.9167  -16.0845 H   0  0  0  0  0  0  0  0  0  0  0  0
    8.9557    2.8849  -17.4640 H   0  0  0  0  0  0  0  0  0  0  0  0
    7.6903    3.7981  -16.6780 H   0  0  0  0  0  0  0  0  0  0  0  0
    5.7731    3.9858  -17.7809 H   0  0  0  0  0  0  0  0  0  0  0  0
    4.8878    2.5018  -18.0398 H   0  0  0  0  0  0  0  0  0  0  0  0
    5.7483    3.2482  -19.3647 H   0  0  0  0  0  0  0  0  0  0  0  0
    6.4699   -0.1883  -15.3484 H   0  0  0  0  0  0  0  0  0  0  0  0
    4.3413   -0.2463  -14.2122 H   0  0  0  0  0  0  0  0  0  0  0  0
    3.4147    1.7775  -13.2793 H   0  0  0  0  0  0  0  0  0  0  0  0
    4.6204    3.8588  -13.4784 H   0  0  0  0  0  0  0  0  0  0  0  0
    6.7577    3.9148  -14.5983 H   0  0  0  0  0  0  0  0  0  0  0  0
  1  4  1  0  0  0  0
  1  9  2  0  0  0  0
  1  5  1  0  0  0  0
  2 11  2  0  0  0  0
  2  3  1  0  0  0  0
  2 10  1  0  0  0  0
  3 14  1  0  0  0  0
  3  4  2  0  0  0  0
  4 12  1  0  0  0  0
  5  6  2  0  0  0  0
  5 25  1  0  0  0  0
  6  7  1  0  0  0  0
  6 26  1  0  0  0  0
  7  8  2  0  0  0  0
  7 27  1  0  0  0  0
  8  9  1  0  0  0  0
  8 28  1  0  0  0  0
  9 10  1  0  0  0  0
 12 13  1  0  0  0  0
 14 15  1  0  0  0  0
 14 19  1  0  0  0  0
 14 29  1  6  0  0  0
 15 16  1  0  0  0  0
 15 30  1  0  0  0  0
 15 31  1  0  0  0  0
 16 18  2  0  0  0  0
 16 17  1  0  0  0  0
 17 32  1  0  0  0  0
 17 33  1  0  0  0  0
 17 34  1  0  0  0  0
 19 20  2  0  0  0  0
 19 24  1  0  0  0  0
 20 21  1  0  0  0  0
 20 35  1  0  0  0  0
 21 22  2  0  0  0  0
 21 36  1  0  0  0  0
 22 23  1  0  0  0  0
 22 37  1  0  0  0  0
 23 24  2  0  0  0  0
 23 38  1  0  0  0  0
 24 39  1  0  0  0  0
M  END
