@<TRIPOS>MOLECULE
IBP-Site1_1h.pdb
   33    33     1     0     0
SMALL
bcc


@<TRIPOS>ATOM
      1 C            4.1810   -11.4640     9.4950 ca         1 UNL      -0.099300
      2 C1           4.9420   -12.3160     8.7160 ca         1 UNL      -0.113000
      3 C2           5.1230   -12.0470     7.3740 ca         1 UNL      -0.130000
      4 C3           4.5420   -10.9280     6.8090 ca         1 UNL      -0.066300
      5 C4           3.7860   -10.0730     7.5880 ca         1 UNL      -0.130000
      6 C5           3.6010   -10.3450     8.9300 ca         1 UNL      -0.113000
      7 C6           3.9820   -11.7570    10.9600 c3         1 UNL      -0.055400
      8 C7           2.4910   -11.7020    11.2940 c3         1 UNL      -0.090100
      9 C8           4.7200   -10.7330    11.7820 c          1 UNL       0.641100
     10 O            4.1360   -10.1130    12.6390 o          1 UNL      -0.553000
     11 O1           6.0250   -10.5090    11.5620 oh         1 UNL      -0.606100
     12 H            6.4130    -9.6520    11.7880 ho         1 UNL       0.443000
     13 C9           4.7400   -10.6350     5.3430 c3         1 UNL      -0.038100
     14 C10          4.0670   -11.7260     4.5100 c3         1 UNL      -0.063700
     15 C11          2.6720   -11.2600     4.0890 c3         1 UNL      -0.092100
     16 C12          4.9070   -12.0080     3.2640 c3         1 UNL      -0.092100
     17 H1           5.3750   -13.1530     9.1380 ha         1 UNL       0.143000
     18 H2           5.6920   -12.6820     6.7930 ha         1 UNL       0.135000
     19 H3           3.3600    -9.2320     7.1680 ha         1 UNL       0.135000
     20 H4           3.0290    -9.7120     9.5110 ha         1 UNL       0.143000
     21 H5           4.3610   -12.7330    11.1830 hc         1 UNL       0.085700
     22 H6           2.1110   -10.7270    11.0720 hc         1 UNL       0.051033
     23 H7           2.3510   -11.9110    12.3340 hc         1 UNL       0.051033
     24 H8           1.9680   -12.4300    10.7100 hc         1 UNL       0.051033
     25 H9           5.7870   -10.6120     5.1220 hc         1 UNL       0.050200
     26 H10          4.3050    -9.6860     5.1070 hc         1 UNL       0.050200
     27 H11          3.9840   -12.6190     5.0940 hc         1 UNL       0.050700
     28 H12          2.7550   -10.3670     3.5050 hc         1 UNL       0.035200
     29 H13          2.0840   -11.0630     4.9610 hc         1 UNL       0.035200
     30 H14          2.2010   -12.0240     3.5070 hc         1 UNL       0.035200
     31 H15          4.9900   -11.1150     2.6800 hc         1 UNL       0.035200
     32 H16          4.4360   -12.7720     2.6820 hc         1 UNL       0.035200
     33 H17          5.8830   -12.3340     3.5580 hc         1 UNL       0.035200
@<TRIPOS>BOND
     1     1     2 ar  
     2     1     6 ar  
     3     1     7 1   
     4     2     3 ar  
     5     2    17 1   
     6     3     4 ar  
     7     3    18 1   
     8     4    13 1   
     9     4     5 ar  
    10     5     6 ar  
    11     5    19 1   
    12     6    20 1   
    13     7     8 1   
    14     7     9 1   
    15     7    21 1   
    16     8    22 1   
    17     8    23 1   
    18     8    24 1   
    19     9    11 1   
    20     9    10 2   
    21    11    12 1   
    22    13    14 1   
    23    13    25 1   
    24    13    26 1   
    25    14    16 1   
    26    14    15 1   
    27    14    27 1   
    28    15    28 1   
    29    15    29 1   
    30    15    30 1   
    31    16    31 1   
    32    16    32 1   
    33    16    33 1   
@<TRIPOS>SUBSTRUCTURE
     1 UNL         1 TEMP              0 ****  ****    0 ROOT
