@<TRIPOS>MOLECULE
Results/Site2/HOLO/ENA1/ENA1-Site2_1.pdb
  108   108     1     0     0
SMALL
bcc


@<TRIPOS>ATOM
      1 O            6.8430    -1.3700   -24.8890 os         1 UNL      -0.400900
      2 O1           8.5040     2.6150   -22.6970 os         1 UNL      -0.437900
      3 O2          11.4430    -0.1450   -23.1280 os         1 UNL      -0.426900
      4 O3           8.3050     0.7840   -25.2900 o          1 UNL      -0.575100
      5 O4           7.0690    -1.3410   -22.5920 o          1 UNL      -0.551000
      6 O5          10.3580    -1.7710   -24.8280 o          1 UNL      -0.581100
      7 O6           8.6800     4.8800   -23.0680 o          1 UNL      -0.508000
      8 O7          10.2550     4.5050   -20.4050 o          1 UNL      -0.570100
      9 O8          12.2630     0.6190   -21.1110 o          1 UNL      -0.541000
     10 N            6.7000     2.3170   -24.6160 n          1 UNL      -0.461800
     11 N1           9.3270    -2.9290   -23.1010 n          1 UNL      -0.477800
     12 N2          11.5300     3.2030   -21.8390 n          1 UNL      -0.462800
     13 C            7.6430     3.4540   -24.7450 c3         1 UNL       0.061700
     14 C1           8.1040    -3.1100   -23.9070 c3         1 UNL       0.074700
     15 C2           6.1280    -0.1190   -24.8710 c3         1 UNL       0.085100
     16 C3          11.6420     2.1730   -22.8930 c3         1 UNL       0.062700
     17 C4          11.3390    -1.5090   -22.6670 c3         1 UNL       0.088100
     18 C5           9.1050     2.6410   -21.3980 c3         1 UNL       0.103100
     19 C6           7.1440     1.0270   -24.9410 c          1 UNL       0.648100
     20 C7           7.2830    -1.8470   -23.6850 c          1 UNL       0.627100
     21 C8          10.3230    -2.0980   -23.6360 c          1 UNL       0.679100
     22 C9           8.2970     3.7640   -23.3980 c          1 UNL       0.610100
     23 C10         10.3380     3.5460   -21.1800 c          1 UNL       0.641100
     24 C11         11.8370     0.8140   -22.2400 c          1 UNL       0.609100
     25 C12          5.3720     2.6280   -24.0780 c3         1 UNL       0.065300
     26 C13          9.3770    -3.4930   -21.7500 c3         1 UNL       0.070300
     27 C14         12.7490     3.9160   -21.4570 c3         1 UNL       0.060300
     28 C15          5.2320    -0.1010   -26.1030 c3         1 UNL      -0.058700
     29 C16          6.0620     0.0850   -27.3710 c3         1 UNL      -0.095100
     30 C17          4.4060    -1.3840   -26.1880 c3         1 UNL      -0.095100
     31 C18          7.2580    -4.3360   -23.5920 c3         1 UNL      -0.064700
     32 C19          5.8100    -4.0880   -24.0210 c3         1 UNL      -0.103100
     33 C20          7.7940    -5.6070   -24.2750 c3         1 UNL      -0.082400
     34 C21          7.2610    -6.8970   -23.6650 c3         1 UNL      -0.096100
     35 C22          7.0100     4.7010   -25.3610 c3         1 UNL      -0.064700
     36 C23          6.5950     5.6730   -24.2530 c3         1 UNL      -0.103100
     37 C24          7.9530     5.4110   -26.3490 c3         1 UNL      -0.082400
     38 C25          8.8930     4.4640   -27.0800 c3         1 UNL      -0.096100
     39 C26         12.6780    -2.2110   -22.7990 c3         1 UNL      -0.063700
     40 C27         13.2710    -1.9800   -24.1870 c3         1 UNL      -0.099100
     41 C28         12.5300    -3.7060   -22.5210 c3         1 UNL      -0.099100
     42 C29          8.0010     2.9460   -20.3850 c3         1 UNL      -0.084700
     43 C30          6.6640     2.3730   -20.8550 c3         1 UNL      -0.094100
     44 C31          8.3650     2.3950   -19.0080 c3         1 UNL      -0.094100
     45 C32         12.7410     2.4200   -23.9250 c3         1 UNL      -0.059700
     46 C33         12.1800     2.3290   -25.3440 c3         1 UNL      -0.106600
     47 C34         13.8890     1.4290   -23.7400 c3         1 UNL      -0.106600
     48 H            8.4020     3.1470   -25.4340 h1         1 UNL       0.119200
     49 H1           8.4040    -3.2760   -24.9210 h1         1 UNL       0.119200
     50 H2           5.5430    -0.0070   -23.9820 h1         1 UNL       0.088700
     51 H3          10.7270     2.2150   -23.4470 h1         1 UNL       0.127700
     52 H4          11.0560    -1.6030   -21.6390 h1         1 UNL       0.087700
     53 H5           9.5390     1.6720   -21.2670 h1         1 UNL       0.086700
     54 H6           4.7870     1.7330   -24.0330 h1         1 UNL       0.048033
     55 H7           4.8880     3.3400   -24.7130 h1         1 UNL       0.048033
     56 H8           5.4730     3.0380   -23.0950 h1         1 UNL       0.048033
     57 H9           8.5050    -4.0890   -21.5800 h1         1 UNL       0.049367
     58 H10          9.4120    -2.6990   -21.0330 h1         1 UNL       0.049367
     59 H11         10.2510    -4.1020   -21.6500 h1         1 UNL       0.049367
     60 H12         13.5710     3.5530   -22.0370 h1         1 UNL       0.055033
     61 H13         12.9460     3.7540   -20.4180 h1         1 UNL       0.055033
     62 H14         12.6210     4.9630   -21.6360 h1         1 UNL       0.055033
     63 H15          4.5610     0.7280   -26.0150 hc         1 UNL       0.056700
     64 H16          6.7410    -0.7350   -27.4760 hc         1 UNL       0.045033
     65 H17          6.6140     0.9990   -27.3050 hc         1 UNL       0.045033
     66 H18          5.4120     0.1220   -28.2200 hc         1 UNL       0.045033
     67 H19          5.0610    -2.2250   -26.2760 hc         1 UNL       0.045033
     68 H20          3.7650    -1.3400   -27.0440 hc         1 UNL       0.045033
     69 H21          3.8130    -1.4860   -25.3030 hc         1 UNL       0.045033
     70 H22          7.3060    -4.4970   -22.5350 hc         1 UNL       0.063200
     71 H23          5.7740    -3.9290   -25.0780 hc         1 UNL       0.045200
     72 H24          5.4320    -3.2230   -23.5170 hc         1 UNL       0.045200
     73 H25          5.2120    -4.9390   -23.7680 hc         1 UNL       0.045200
     74 H26          8.8610    -5.6100   -24.1950 hc         1 UNL       0.052700
     75 H27          7.4630    -5.5800   -25.2920 hc         1 UNL       0.052700
     76 H28          7.5710    -6.9630   -22.6430 hc         1 UNL       0.035533
     77 H29          7.6460    -7.7340   -24.2090 hc         1 UNL       0.035533
     78 H30          6.1920    -6.9000   -23.7150 hc         1 UNL       0.035533
     79 H31          6.1500     4.3830   -25.9130 hc         1 UNL       0.063200
     80 H32          7.4620     5.9840   -23.7090 hc         1 UNL       0.045200
     81 H33          5.9120     5.1860   -23.5880 hc         1 UNL       0.045200
     82 H34          6.1210     6.5280   -24.6880 hc         1 UNL       0.045200
     83 H35          8.5420     6.1190   -25.8050 hc         1 UNL       0.052700
     84 H36          7.3380     5.8770   -27.0900 hc         1 UNL       0.052700
     85 H37          9.5280     3.9750   -26.3720 hc         1 UNL       0.035533
     86 H38          9.4910     5.0190   -27.7720 hc         1 UNL       0.035533
     87 H39          8.3200     3.7320   -27.6100 hc         1 UNL       0.035533
     88 H40         13.3480    -1.7980   -22.0740 hc         1 UNL       0.057700
     89 H41         12.6150    -2.3870   -24.9270 hc         1 UNL       0.045533
     90 H42         14.2240    -2.4610   -24.2520 hc         1 UNL       0.045533
     91 H43         13.3890    -0.9300   -24.3540 hc         1 UNL       0.045533
     92 H44         11.8630    -4.1380   -23.2380 hc         1 UNL       0.045533
     93 H45         12.1360    -3.8480   -21.5360 hc         1 UNL       0.045533
     94 H46         13.4870    -4.1790   -22.5950 hc         1 UNL       0.045533
     95 H47          7.9040     4.0090   -20.3070 hc         1 UNL       0.098700
     96 H48          6.7420     1.3090   -20.9390 hc         1 UNL       0.041033
     97 H49          6.4130     2.7890   -21.8090 hc         1 UNL       0.041033
     98 H50          5.9010     2.6200   -20.1460 hc         1 UNL       0.041033
     99 H51          8.4670     1.3310   -19.0650 hc         1 UNL       0.041033
    100 H52          7.5930     2.6420   -18.3090 hc         1 UNL       0.041033
    101 H53          9.2900     2.8250   -18.6850 hc         1 UNL       0.041033
    102 H54         13.1220     3.4090   -23.7750 hc         1 UNL       0.064700
    103 H55         11.7940     1.3450   -25.5120 hc         1 UNL       0.047533
    104 H56         12.9590     2.5320   -26.0490 hc         1 UNL       0.047533
    105 H57         11.3950     3.0460   -25.4640 hc         1 UNL       0.047533
    106 H58         13.5270     0.4330   -23.8860 hc         1 UNL       0.047533
    107 H59         14.2850     1.5230   -22.7510 hc         1 UNL       0.047533
    108 H60         14.6580     1.6370   -24.4540 hc         1 UNL       0.047533
@<TRIPOS>BOND
     1     1    15 1   
     2     1    20 1   
     3     2    22 1   
     4     2    18 1   
     5     3    17 1   
     6     3    24 1   
     7     4    19 2   
     8     5    20 2   
     9     6    21 2   
    10     7    22 2   
    11     8    23 2   
    12     9    24 2   
    13    10    19 1   
    14    10    13 1   
    15    10    25 1   
    16    11    14 1   
    17    11    21 1   
    18    11    26 1   
    19    12    16 1   
    20    12    27 1   
    21    12    23 1   
    22    13    35 1   
    23    13    22 1   
    24    14    20 1   
    25    14    31 1   
    26    15    28 1   
    27    15    19 1   
    28    16    45 1   
    29    16    24 1   
    30    17    21 1   
    31    17    39 1   
    32    18    23 1   
    33    18    42 1   
    34    28    29 1   
    35    28    30 1   
    36    31    33 1   
    37    31    32 1   
    38    33    34 1   
    39    35    37 1   
    40    35    36 1   
    41    37    38 1   
    42    39    40 1   
    43    39    41 1   
    44    42    43 1   
    45    42    44 1   
    46    45    46 1   
    47    45    47 1   
    48    13    48 1   
    49    14    49 1   
    50    15    50 1   
    51    16    51 1   
    52    17    52 1   
    53    18    53 1   
    54    25    54 1   
    55    25    55 1   
    56    25    56 1   
    57    26    57 1   
    58    26    58 1   
    59    26    59 1   
    60    27    60 1   
    61    27    61 1   
    62    27    62 1   
    63    28    63 1   
    64    29    64 1   
    65    29    65 1   
    66    29    66 1   
    67    30    67 1   
    68    30    68 1   
    69    30    69 1   
    70    31    70 1   
    71    32    71 1   
    72    32    72 1   
    73    32    73 1   
    74    33    74 1   
    75    33    75 1   
    76    34    76 1   
    77    34    77 1   
    78    34    78 1   
    79    35    79 1   
    80    36    80 1   
    81    36    81 1   
    82    36    82 1   
    83    37    83 1   
    84    37    84 1   
    85    38    85 1   
    86    38    86 1   
    87    38    87 1   
    88    39    88 1   
    89    40    89 1   
    90    40    90 1   
    91    40    91 1   
    92    41    92 1   
    93    41    93 1   
    94    41    94 1   
    95    42    95 1   
    96    43    96 1   
    97    43    97 1   
    98    43    98 1   
    99    44    99 1   
   100    44   100 1   
   101    44   101 1   
   102    45   102 1   
   103    46   103 1   
   104    46   104 1   
   105    46   105 1   
   106    47   106 1   
   107    47   107 1   
   108    47   108 1   
@<TRIPOS>SUBSTRUCTURE
     1 UNL         1 TEMP              0 ****  ****    0 ROOT
