@<TRIPOS>MOLECULE
Results/Site2/HOLO/IBP/IBP-Site2_1.pdb
 33 33 0 0 0
SMALL
GASTEIGER

@<TRIPOS>ATOM
      1  C          7.2540    3.4480  -14.0160 C.ar    1  UNL1       -0.0339
      2  C          8.1530    2.4800  -14.4220 C.ar    1  UNL1       -0.0575
      3  C          9.4640    2.5310  -13.9910 C.ar    1  UNL1       -0.0583
      4  C          9.8770    3.5500  -13.1540 C.ar    1  UNL1       -0.0471
      5  C          8.9770    4.5140  -12.7440 C.ar    1  UNL1       -0.0583
      6  C          7.6670    4.4660  -13.1790 C.ar    1  UNL1       -0.0575
      7  C          5.8240    3.3940  -14.4870 C.3     1  UNL1        0.0784
      8  C          5.1360    2.1630  -13.8930 C.3     1  UNL1       -0.0482
      9  C          5.7930    3.3100  -15.9910 C.2     1  UNL1        0.3119
     10  O          5.3480    2.3250  -16.5320 O.2     1  UNL1       -0.2503
     11  O          6.2610    4.3280  -16.7300 O.3     1  UNL1       -0.4802
     12  H          7.2050    4.5400  -16.7190 H       1  UNL1        0.2951
     13  C         11.3080    3.6050  -12.6840 C.3     1  UNL1       -0.0253
     14  C         11.7540    2.2110  -12.2420 C.3     1  UNL1       -0.0427
     15  C         12.9630    1.7740  -13.0720 C.3     1  UNL1       -0.0624
     16  C         12.1370    2.2430  -10.7620 C.3     1  UNL1       -0.0624
     17 H           7.8446    1.7191  -15.0472 H       1  UNL1        0.0621
     18 H          10.1353    1.8081  -14.2940 H       1  UNL1        0.0620
     19 H           9.2834    5.2704  -12.1124 H       1  UNL1        0.0620
     20 H           6.9967    5.1909  -12.8786 H       1  UNL1        0.0621
     21 H           5.3108    4.2772  -14.1684 H       1  UNL1        0.0459
     22 H           5.6488    1.2795  -14.2113 H       1  UNL1        0.0241
     23 H           4.1203    2.1259  -14.2274 H       1  UNL1        0.0241
     24 H           5.1579    2.2228  -12.8249 H       1  UNL1        0.0241
     25 H          11.3867    4.2826  -11.8596 H       1  UNL1        0.0316
     26 H          11.9332    3.9421  -13.4842 H       1  UNL1        0.0316
     27 H          10.9520    1.5179  -12.3881 H       1  UNL1        0.0299
     28 H          13.7651    2.4670  -12.9260 H       1  UNL1        0.0232
     29 H          12.6952    1.7514  -14.1077 H       1  UNL1        0.0232
     30 H          13.2741    0.7981  -12.7626 H       1  UNL1        0.0232
     31 H          12.9390    2.9361  -10.6160 H       1  UNL1        0.0232
     32 H          12.4483    1.2670  -10.4530 H       1  UNL1        0.0232
     33 H          11.2917    2.5483  -10.1813 H       1  UNL1        0.0232
@<TRIPOS>BOND
     1     1     7    1
     2     1     2   ar
     3     1     6   ar
     4     2     3   ar
     5     3     4   ar
     6     4     5   ar
     7     4    13    1
     8     5     6   ar
     9     7     9    1
    10     7     8    1
    11     9    11    1
    12     9    10    2
    13    11    12    1
    14    13    14    1
    15    14    15    1
    16    14    16    1
    17     2    17    1
    18     3    18    1
    19     5    19    1
    20     6    20    1
    21     7    21    1
    22     8    22    1
    23     8    23    1
    24     8    24    1
    25    13    25    1
    26    13    26    1
    27    14    27    1
    28    15    28    1
    29    15    29    1
    30    15    30    1
    31    16    31    1
    32    16    32    1
    33    16    33    1
