Results/Site2/HOLO/IBP/IBP-Site2_1.pdb
 OpenBabel08312517003D

 33 33  0  0  1  0  0  0  0  0999 V2000
    7.2540    3.4480  -14.0160 C   0  0  0  0  0  0  0  0  0  0  0  0
    8.1530    2.4800  -14.4220 C   0  0  0  0  0  0  0  0  0  0  0  0
    9.4640    2.5310  -13.9910 C   0  0  0  0  0  0  0  0  0  0  0  0
    9.8770    3.5500  -13.1540 C   0  0  0  0  0  0  0  0  0  0  0  0
    8.9770    4.5140  -12.7440 C   0  0  0  0  0  0  0  0  0  0  0  0
    7.6670    4.4660  -13.1790 C   0  0  0  0  0  0  0  0  0  0  0  0
    5.8240    3.3940  -14.4870 C   0  0  2  0  0  0  0  0  0  0  0  0
    5.1360    2.1630  -13.8930 C   0  0  0  0  0  0  0  0  0  0  0  0
    5.7930    3.3100  -15.9910 C   0  0  0  0  0  0  0  0  0  0  0  0
    5.3480    2.3250  -16.5320 O   0  0  0  0  0  0  0  0  0  0  0  0
    6.2610    4.3280  -16.7300 O   0  0  0  0  0  0  0  0  0  0  0  0
    7.2050    4.5400  -16.7190 H   0  0  0  0  0  0  0  0  0  0  0  0
   11.3080    3.6050  -12.6840 C   0  0  0  0  0  0  0  0  0  0  0  0
   11.7540    2.2110  -12.2420 C   0  0  0  0  0  0  0  0  0  0  0  0
   12.9630    1.7740  -13.0720 C   0  0  0  0  0  0  0  0  0  0  0  0
   12.1370    2.2430  -10.7620 C   0  0  0  0  0  0  0  0  0  0  0  0
    7.8446    1.7191  -15.0472 H   0  0  0  0  0  0  0  0  0  0  0  0
   10.1353    1.8081  -14.2940 H   0  0  0  0  0  0  0  0  0  0  0  0
    9.2834    5.2704  -12.1124 H   0  0  0  0  0  0  0  0  0  0  0  0
    6.9967    5.1909  -12.8786 H   0  0  0  0  0  0  0  0  0  0  0  0
    5.3108    4.2772  -14.1684 H   0  0  0  0  0  0  0  0  0  0  0  0
    5.6488    1.2795  -14.2113 H   0  0  0  0  0  0  0  0  0  0  0  0
    4.1203    2.1259  -14.2274 H   0  0  0  0  0  0  0  0  0  0  0  0
    5.1579    2.2228  -12.8249 H   0  0  0  0  0  0  0  0  0  0  0  0
   11.3867    4.2826  -11.8596 H   0  0  0  0  0  0  0  0  0  0  0  0
   11.9332    3.9421  -13.4842 H   0  0  0  0  0  0  0  0  0  0  0  0
   10.9520    1.5179  -12.3881 H   0  0  0  0  0  0  0  0  0  0  0  0
   13.7651    2.4670  -12.9260 H   0  0  0  0  0  0  0  0  0  0  0  0
   12.6952    1.7514  -14.1077 H   0  0  0  0  0  0  0  0  0  0  0  0
   13.2741    0.7981  -12.7626 H   0  0  0  0  0  0  0  0  0  0  0  0
   12.9390    2.9361  -10.6160 H   0  0  0  0  0  0  0  0  0  0  0  0
   12.4483    1.2670  -10.4530 H   0  0  0  0  0  0  0  0  0  0  0  0
   11.2917    2.5483  -10.1813 H   0  0  0  0  0  0  0  0  0  0  0  0
  1  7  1  0  0  0  0
  1  2  2  0  0  0  0
  1  6  1  0  0  0  0
  2  3  1  0  0  0  0
  2 17  1  0  0  0  0
  3  4  2  0  0  0  0
  3 18  1  0  0  0  0
  4  5  1  0  0  0  0
  4 13  1  0  0  0  0
  5  6  2  0  0  0  0
  5 19  1  0  0  0  0
  6 20  1  0  0  0  0
  7  9  1  0  0  0  0
  7  8  1  0  0  0  0
  7 21  1  1  0  0  0
  8 22  1  0  0  0  0
  8 23  1  0  0  0  0
  8 24  1  0  0  0  0
  9 11  1  0  0  0  0
  9 10  2  0  0  0  0
 11 12  1  0  0  0  0
 13 14  1  0  0  0  0
 13 25  1  0  0  0  0
 13 26  1  0  0  0  0
 14 15  1  0  0  0  0
 14 16  1  0  0  0  0
 14 27  1  0  0  0  0
 15 28  1  0  0  0  0
 15 29  1  0  0  0  0
 15 30  1  0  0  0  0
 16 31  1  0  0  0  0
 16 32  1  0  0  0  0
 16 33  1  0  0  0  0
M  END
