Results/Site2/HOLO/ENB1/ENB1-Site2_1.pdb
 OpenBabel08312517003D

105105  0  0  1  0  0  0  0  0999 V2000
    5.7090    6.4350  -24.3440 O   0  0  0  0  0  0  0  0  0  0  0  0
    9.0780   10.4280  -24.3180 O   0  0  0  0  0  0  0  0  0  0  0  0
   10.8410    6.0810  -24.9020 O   0  0  0  0  0  0  0  0  0  0  0  0
    6.6990    9.2310  -22.5550 O   0  0  0  0  0  0  0  0  0  0  0  0
    6.6950    7.3930  -26.1960 O   0  0  0  0  0  0  0  0  0  0  0  0
    7.8540    6.5420  -22.8940 O   0  0  0  0  0  0  0  0  0  0  0  0
   12.7710    8.6680  -24.6000 O   0  0  0  0  0  0  0  0  0  0  0  0
    9.8910   12.5280  -24.7730 O   0  0  0  0  0  0  0  0  0  0  0  0
   12.0980    6.2760  -22.9840 O   0  0  0  0  0  0  0  0  0  0  0  0
    6.1640    9.7790  -24.7450 N   0  0  0  0  0  0  0  0  0  0  0  0
    8.9130    4.6870  -23.7820 N   0  0  0  0  0  0  0  0  0  0  0  0
   10.8710    9.1530  -25.8510 N   0  0  0  0  0  0  0  0  0  0  0  0
    5.1730    8.6860  -24.8050 C   0  0  2  0  0  0  0  0  0  0  0  0
   10.0970    4.9320  -22.9300 C   0  0  2  0  0  0  0  0  0  0  0  0
   11.0410   10.6120  -25.6950 C   0  0  2  0  0  0  0  0  0  0  0  0
    8.0040   10.9810  -23.5320 C   0  0  1  0  0  0  0  0  0  0  0  0
    6.5510    5.2660  -24.4430 C   0  0  1  0  0  0  0  0  0  0  0  0
   11.7580    6.8110  -25.7370 C   0  0  1  0  0  0  0  0  0  0  0  0
    6.9030    9.9240  -23.5570 C   0  0  0  0  0  0  0  0  0  0  0  0
    5.9470    7.4480  -25.2290 C   0  0  0  0  0  0  0  0  0  0  0  0
    7.8240    5.5600  -23.6430 C   0  0  0  0  0  0  0  0  0  0  0  0
   11.8500    8.2900  -25.3310 C   0  0  0  0  0  0  0  0  0  0  0  0
    9.9420   11.3080  -24.8960 C   0  0  0  0  0  0  0  0  0  0  0  0
   11.1220    5.8510  -23.5910 C   0  0  0  0  0  0  0  0  0  0  0  0
    6.3360   10.6140  -25.9390 C   0  0  0  0  0  0  0  0  0  0  0  0
    8.9730    3.5770  -24.7360 C   0  0  0  0  0  0  0  0  0  0  0  0
    9.7750    8.6870  -26.7020 C   0  0  0  0  0  0  0  0  0  0  0  0
    5.7790    4.1130  -23.8190 C   0  0  0  0  0  0  0  0  0  0  0  0
    4.3430    4.5310  -23.5080 C   0  0  0  0  0  0  0  0  0  0  0  0
    5.7930    2.8930  -24.7400 C   0  0  0  0  0  0  0  0  0  0  0  0
    3.9870    8.9090  -25.7360 C   0  0  1  0  0  0  0  0  0  0  0  0
    4.3720    8.5330  -27.1680 C   0  0  0  0  0  0  0  0  0  0  0  0
    2.7670    8.1170  -25.2330 C   0  0  0  0  0  0  0  0  0  0  0  0
    2.6920    8.0060  -23.7160 C   0  0  0  0  0  0  0  0  0  0  0  0
   10.7850    3.6530  -22.4510 C   0  0  0  0  0  0  0  0  0  0  0  0
   12.2890    3.7220  -22.7050 C   0  0  0  0  0  0  0  0  0  0  0  0
   10.5040    3.4120  -20.9680 C   0  0  0  0  0  0  0  0  0  0  0  0
    8.5140   11.2310  -22.1150 C   0  0  0  0  0  0  0  0  0  0  0  0
    8.5780   12.7290  -21.8210 C   0  0  0  0  0  0  0  0  0  0  0  0
    9.8840   10.5870  -21.9130 C   0  0  0  0  0  0  0  0  0  0  0  0
   13.1250    6.1320  -25.8090 C   0  0  0  0  0  0  0  0  0  0  0  0
   13.9990    6.7980  -26.8690 C   0  0  0  0  0  0  0  0  0  0  0  0
   12.9690    4.6420  -26.1000 C   0  0  0  0  0  0  0  0  0  0  0  0
   11.2340   11.2970  -27.0480 C   0  0  0  0  0  0  0  0  0  0  0  0
   12.5260   12.1100  -27.0560 C   0  0  0  0  0  0  0  0  0  0  0  0
   10.0370   12.1850  -27.3730 C   0  0  0  0  0  0  0  0  0  0  0  0
    4.7164    8.6040  -23.8408 H   0  0  0  0  0  0  0  0  0  0  0  0
    9.7000    5.4275  -22.0687 H   0  0  0  0  0  0  0  0  0  0  0  0
   11.9300   10.7170  -25.1089 H   0  0  0  0  0  0  0  0  0  0  0  0
    7.6379   11.9140  -23.9067 H   0  0  0  0  0  0  0  0  0  0  0  0
    6.8124    5.0206  -25.4511 H   0  0  0  0  0  0  0  0  0  0  0  0
   11.3624    6.7973  -26.7311 H   0  0  0  0  0  0  0  0  0  0  0  0
    5.6529   10.2954  -26.6984 H   0  0  0  0  0  0  0  0  0  0  0  0
    7.3391   10.5192  -26.2990 H   0  0  0  0  0  0  0  0  0  0  0  0
    6.1414   11.6363  -25.6903 H   0  0  0  0  0  0  0  0  0  0  0  0
    8.0520    3.5223  -25.2780 H   0  0  0  0  0  0  0  0  0  0  0  0
    9.1306    2.6603  -24.2071 H   0  0  0  0  0  0  0  0  0  0  0  0
    9.7802    3.7376  -25.4197 H   0  0  0  0  0  0  0  0  0  0  0  0
    9.1582    9.5174  -26.9758 H   0  0  0  0  0  0  0  0  0  0  0  0
    9.1892    7.9685  -26.1676 H   0  0  0  0  0  0  0  0  0  0  0  0
   10.1764    8.2345  -27.5846 H   0  0  0  0  0  0  0  0  0  0  0  0
    6.2597    3.8480  -22.9005 H   0  0  0  0  0  0  0  0  0  0  0  0
    3.8452    4.8001  -24.4161 H   0  0  0  0  0  0  0  0  0  0  0  0
    4.3516    5.3699  -22.8439 H   0  0  0  0  0  0  0  0  0  0  0  0
    3.8263    3.7158  -23.0461 H   0  0  0  0  0  0  0  0  0  0  0  0
    5.3156    3.1392  -25.6654 H   0  0  0  0  0  0  0  0  0  0  0  0
    5.2686    2.0865  -24.2716 H   0  0  0  0  0  0  0  0  0  0  0  0
    6.8047    2.5994  -24.9277 H   0  0  0  0  0  0  0  0  0  0  0  0
    3.7163    9.9442  -25.7378 H   0  0  0  0  0  0  0  0  0  0  0  0
    4.6495    7.5002  -27.2032 H   0  0  0  0  0  0  0  0  0  0  0  0
    5.1977    9.1352  -27.4852 H   0  0  0  0  0  0  0  0  0  0  0  0
    3.5381    8.7006  -27.8172 H   0  0  0  0  0  0  0  0  0  0  0  0
    2.8134    7.1294  -25.6421 H   0  0  0  0  0  0  0  0  0  0  0  0
    1.8955    8.6501  -25.5509 H   0  0  0  0  0  0  0  0  0  0  0  0
    3.5488    7.4769  -23.3543 H   0  0  0  0  0  0  0  0  0  0  0  0
    1.8036    7.4770  -23.4406 H   0  0  0  0  0  0  0  0  0  0  0  0
    2.6709    8.9861  -23.2873 H   0  0  0  0  0  0  0  0  0  0  0  0
   10.3861    2.8311  -23.0081 H   0  0  0  0  0  0  0  0  0  0  0  0
   12.7064    4.5395  -22.1551 H   0  0  0  0  0  0  0  0  0  0  0  0
   12.4680    3.8666  -23.7500 H   0  0  0  0  0  0  0  0  0  0  0  0
   12.7466    2.8082  -22.3879 H   0  0  0  0  0  0  0  0  0  0  0  0
   10.8964    4.2252  -20.3939 H   0  0  0  0  0  0  0  0  0  0  0  0
   10.9712    2.4999  -20.6601 H   0  0  0  0  0  0  0  0  0  0  0  0
    9.4478    3.3421  -20.8119 H   0  0  0  0  0  0  0  0  0  0  0  0
    7.8265   10.7820  -21.4290 H   0  0  0  0  0  0  0  0  0  0  0  0
    9.2619   13.1965  -22.4982 H   0  0  0  0  0  0  0  0  0  0  0  0
    8.9114   12.8813  -20.8157 H   0  0  0  0  0  0  0  0  0  0  0  0
    7.6055   13.1583  -21.9431 H   0  0  0  0  0  0  0  0  0  0  0  0
   10.5869   11.0236  -22.5915 H   0  0  0  0  0  0  0  0  0  0  0  0
    9.8147    9.5355  -22.0988 H   0  0  0  0  0  0  0  0  0  0  0  0
   10.2103   10.7507  -20.9072 H   0  0  0  0  0  0  0  0  0  0  0  0
   13.6060    6.2405  -24.8594 H   0  0  0  0  0  0  0  0  0  0  0  0
   13.5340    6.7000  -27.8277 H   0  0  0  0  0  0  0  0  0  0  0  0
   14.9589    6.3256  -26.8881 H   0  0  0  0  0  0  0  0  0  0  0  0
   14.1166    7.8352  -26.6340 H   0  0  0  0  0  0  0  0  0  0  0  0
   12.4890    4.5120  -27.0474 H   0  0  0  0  0  0  0  0  0  0  0  0
   12.3747    4.1893  -25.3340 H   0  0  0  0  0  0  0  0  0  0  0  0
   13.9339    4.1801  -26.1226 H   0  0  0  0  0  0  0  0  0  0  0  0
   11.3071   10.5422  -27.8029 H   0  0  0  0  0  0  0  0  0  0  0  0
   12.4727   12.8717  -26.3064 H   0  0  0  0  0  0  0  0  0  0  0  0
   12.6563   12.5632  -28.0165 H   0  0  0  0  0  0  0  0  0  0  0  0
   13.3546   11.4649  -26.8507 H   0  0  0  0  0  0  0  0  0  0  0  0
    9.9463   12.9479  -26.6283 H   0  0  0  0  0  0  0  0  0  0  0  0
    9.1464   11.5922  -27.3866 H   0  0  0  0  0  0  0  0  0  0  0  0
   10.1788   12.6378  -28.3321 H   0  0  0  0  0  0  0  0  0  0  0  0
  1 20  1  0  0  0  0
  1 17  1  0  0  0  0
  2 23  1  0  0  0  0
  2 16  1  0  0  0  0
  3 18  1  0  0  0  0
  3 24  1  0  0  0  0
  4 19  2  0  0  0  0
  5 20  2  0  0  0  0
  6 21  2  0  0  0  0
  7 22  2  0  0  0  0
  8 23  2  0  0  0  0
  9 24  2  0  0  0  0
 10 25  1  0  0  0  0
 10 13  1  0  0  0  0
 10 19  1  0  0  0  0
 11 26  1  0  0  0  0
 11 21  1  0  0  0  0
 11 14  1  0  0  0  0
 12 27  1  0  0  0  0
 12 15  1  0  0  0  0
 12 22  1  0  0  0  0
 13 31  1  0  0  0  0
 13 20  1  0  0  0  0
 13 47  1  1  0  0  0
 14 24  1  0  0  0  0
 14 35  1  0  0  0  0
 14 48  1  1  0  0  0
 15 44  1  0  0  0  0
 15 23  1  0  0  0  0
 15 49  1  1  0  0  0
 16 19  1  0  0  0  0
 16 38  1  0  0  0  0
 16 50  1  6  0  0  0
 17 28  1  0  0  0  0
 17 21  1  0  0  0  0
 17 51  1  6  0  0  0
 18 41  1  0  0  0  0
 18 22  1  0  0  0  0
 18 52  1  6  0  0  0
 25 53  1  0  0  0  0
 25 54  1  0  0  0  0
 25 55  1  0  0  0  0
 26 56  1  0  0  0  0
 26 57  1  0  0  0  0
 26 58  1  0  0  0  0
 27 59  1  0  0  0  0
 27 60  1  0  0  0  0
 27 61  1  0  0  0  0
 28 30  1  0  0  0  0
 28 29  1  0  0  0  0
 28 62  1  0  0  0  0
 29 63  1  0  0  0  0
 29 64  1  0  0  0  0
 29 65  1  0  0  0  0
 30 66  1  0  0  0  0
 30 67  1  0  0  0  0
 30 68  1  0  0  0  0
 31 32  1  0  0  0  0
 31 33  1  0  0  0  0
 31 69  1  1  0  0  0
 32 70  1  0  0  0  0
 32 71  1  0  0  0  0
 32 72  1  0  0  0  0
 33 34  1  0  0  0  0
 33 73  1  0  0  0  0
 33 74  1  0  0  0  0
 34 75  1  0  0  0  0
 34 76  1  0  0  0  0
 34 77  1  0  0  0  0
 35 36  1  0  0  0  0
 35 37  1  0  0  0  0
 35 78  1  0  0  0  0
 36 79  1  0  0  0  0
 36 80  1  0  0  0  0
 36 81  1  0  0  0  0
 37 82  1  0  0  0  0
 37 83  1  0  0  0  0
 37 84  1  0  0  0  0
 38 40  1  0  0  0  0
 38 39  1  0  0  0  0
 38 85  1  0  0  0  0
 39 86  1  0  0  0  0
 39 87  1  0  0  0  0
 39 88  1  0  0  0  0
 40 89  1  0  0  0  0
 40 90  1  0  0  0  0
 40 91  1  0  0  0  0
 41 42  1  0  0  0  0
 41 43  1  0  0  0  0
 41 92  1  0  0  0  0
 42 93  1  0  0  0  0
 42 94  1  0  0  0  0
 42 95  1  0  0  0  0
 43 96  1  0  0  0  0
 43 97  1  0  0  0  0
 43 98  1  0  0  0  0
 44 46  1  0  0  0  0
 44 45  1  0  0  0  0
 44 99  1  0  0  0  0
 45100  1  0  0  0  0
 45101  1  0  0  0  0
 45102  1  0  0  0  0
 46103  1  0  0  0  0
 46104  1  0  0  0  0
 46105  1  0  0  0  0
M  END
