@<TRIPOS>MOLECULE
Results/Site2/HOLO/ENB/ENB-Site2_1.pdb
 102 102 0 0 0
SMALL
GASTEIGER

@<TRIPOS>ATOM
      1  O          5.8830    6.5070  -24.2400 O.3     1  UNL1       -0.4503
      2  O         10.9570    6.4700  -25.2540 O.3     1  UNL1       -0.4503
      3  O          9.0230   10.6820  -24.3210 O.3     1  UNL1       -0.4503
      4  O          8.1400    6.6780  -22.9770 O.2     1  UNL1       -0.2715
      5  O          6.8790    9.2790  -22.4170 O.2     1  UNL1       -0.2715
      6  O         12.7660    9.1480  -25.0000 O.2     1  UNL1       -0.2715
      7  O          6.6490    7.5950  -26.1230 O.2     1  UNL1       -0.2487
      8  O         12.3670    6.6560  -23.4430 O.2     1  UNL1       -0.2487
      9  O          9.6800   12.8400  -24.7490 O.2     1  UNL1       -0.2487
     10  N          9.2130    4.9240  -24.0360 N.am    1  UNL1       -0.2878
     11  N          6.1230    9.8860  -24.5250 N.am    1  UNL1       -0.2878
     12  N         10.7390    9.5740  -26.0600 N.am    1  UNL1       -0.2878
     13  C         10.4520    5.1990  -23.2800 C.3     1  UNL1        0.1250
     14  C          5.1890    8.7410  -24.5490 C.3     1  UNL1        0.1250
     15  C         10.8450   11.0330  -25.8530 C.3     1  UNL1        0.1250
     16  C          6.7740    5.3930  -24.4640 C.3     1  UNL1        0.1808
     17  C         11.7550    7.2850  -26.1290 C.3     1  UNL1        0.1808
     18  C          7.9960   11.1400  -23.4210 C.3     1  UNL1        0.1808
     19  C          8.0950    5.7260  -23.7650 C.2     1  UNL1        0.2571
     20  C          6.9550   10.0230  -23.3990 C.2     1  UNL1        0.2571
     21  C         11.8060    8.7480  -25.6660 C.2     1  UNL1        0.2571
     22  C          5.9870    7.5680  -25.0940 C.2     1  UNL1        0.3288
     23  C         11.3640    6.2020  -23.9840 C.2     1  UNL1        0.3288
     24  C          9.7850   11.6320  -24.9310 C.2     1  UNL1        0.3288
     25  C          9.2470    3.8580  -25.0420 C.3     1  UNL1        0.0041
     26  C          6.1430   10.7770  -25.6890 C.3     1  UNL1        0.0041
     27  C          9.5970    9.0820  -26.8340 C.3     1  UNL1        0.0041
     28  C          6.1230    4.1730  -23.8300 C.3     1  UNL1       -0.0008
     29  C          4.7540    4.5310  -23.2530 C.3     1  UNL1       -0.0588
     30  C          5.9940    3.0390  -24.8460 C.3     1  UNL1       -0.0588
     31  C          3.9160    8.9340  -25.3630 C.3     1  UNL1       -0.0177
     32  C          4.0810    8.3520  -26.7650 C.3     1  UNL1       -0.0605
     33  C          2.7230    8.2960  -24.6550 C.3     1  UNL1       -0.0605
     34  C         11.2470    3.9440  -22.9210 C.3     1  UNL1       -0.0177
     35  C         11.6320    3.9540  -21.4420 C.3     1  UNL1       -0.0605
     36  C         12.4930    3.8240  -23.7960 C.3     1  UNL1       -0.0605
     37  C          8.6160   11.3600  -22.0440 C.3     1  UNL1       -0.0008
     38  C          9.9540   10.6300  -21.9320 C.3     1  UNL1       -0.0588
     39  C          8.7940   12.8500  -21.7630 C.3     1  UNL1       -0.0588
     40  C         13.1450    6.6880  -26.3510 C.3     1  UNL1       -0.0008
     41  C         14.0000    7.6190  -27.2080 C.3     1  UNL1       -0.0588
     42  C         13.0400    5.3080  -26.9990 C.3     1  UNL1       -0.0588
     43  C         10.8810   11.7830  -27.1850 C.3     1  UNL1       -0.0177
     44  C          9.6020   12.5950  -27.3750 C.3     1  UNL1       -0.0605
     45  C         12.1080   12.6870  -27.2560 C.3     1  UNL1       -0.0605
     46 H          10.1067    5.6338  -22.3653 H       1  UNL1        0.0619
     47 H           4.8242    8.5938  -23.5539 H       1  UNL1        0.0619
     48 H          11.7758   11.1645  -25.3419 H       1  UNL1        0.0619
     49 H           6.9578    5.2044  -25.5011 H       1  UNL1        0.0835
     50 H          11.2718    7.2906  -27.0837 H       1  UNL1        0.0835
     51 H           7.5488   12.0652  -23.7193 H       1  UNL1        0.0835
     52 H           8.2860    3.7737  -25.5050 H       1  UNL1        0.0429
     53 H           9.4985    2.9308  -24.5708 H       1  UNL1        0.0429
     54 H           9.9813    4.0915  -25.7844 H       1  UNL1        0.0429
     55 H           5.4132   10.4509  -26.4003 H       1  UNL1        0.0429
     56 H           7.1138   10.7550  -26.1384 H       1  UNL1        0.0429
     57 H           5.9165   11.7754  -25.3779 H       1  UNL1        0.0429
     58 H           8.9154    9.8867  -27.0148 H       1  UNL1        0.0429
     59 H           9.0998    8.3100  -26.2847 H       1  UNL1        0.0429
     60 H           9.9415    8.6898  -27.7680 H       1  UNL1        0.0429
     61 H           6.7504    3.8389  -23.0302 H       1  UNL1        0.0336
     62 H           4.1122    4.8678  -24.0401 H       1  UNL1        0.0234
     63 H           4.8654    5.3085  -22.5264 H       1  UNL1        0.0234
     64 H           4.3258    3.6674  -22.7885 H       1  UNL1        0.0234
     65 H           5.3689    3.3544  -25.6551 H       1  UNL1        0.0234
     66 H           5.5597    2.1835  -24.3724 H       1  UNL1        0.0234
     67 H           6.9630    2.7850  -25.2220 H       1  UNL1        0.0234
     68 H           3.7317    9.9841  -25.4536 H       1  UNL1        0.0319
     69 H           4.2664    7.3005  -26.6951 H       1  UNL1        0.0233
     70 H           4.9053    8.8278  -27.2540 H       1  UNL1        0.0233
     71 H           3.1869    8.5198  -27.3283 H       1  UNL1        0.0233
     72 H           2.8888    7.2437  -24.5547 H       1  UNL1        0.0233
     73 H           1.8358    8.4642  -25.2291 H       1  UNL1        0.0233
     74 H           2.6084    8.7330  -23.6851 H       1  UNL1        0.0233
     75 H          10.6247    3.0927  -23.1027 H       1  UNL1        0.0319
     76 H          12.2556    4.8001  -21.2415 H       1  UNL1        0.0233
     77 H          12.1629    3.0556  -21.2056 H       1  UNL1        0.0233
     78 H          10.7470    4.0133  -20.8435 H       1  UNL1        0.0233
     79 H          13.1292    4.6678  -23.6283 H       1  UNL1        0.0233
     80 H          12.2041    3.7943  -24.8258 H       1  UNL1        0.0233
     81 H          13.0186    2.9259  -23.5469 H       1  UNL1        0.0233
     82 H           7.9495   10.9571  -21.3102 H       1  UNL1        0.0336
     83 H          10.6350   11.0199  -22.6594 H       1  UNL1        0.0234
     84 H           9.8057    9.5848  -22.1065 H       1  UNL1        0.0234
     85 H          10.3580   10.7742  -20.9517 H       1  UNL1        0.0234
     86 H           9.4585   13.2727  -22.4874 H       1  UNL1        0.0234
     87 H           9.2038   12.9818  -20.7834 H       1  UNL1        0.0234
     88 H           7.8445   13.3399  -21.8213 H       1  UNL1        0.0234
     89 H          13.6191    6.5779  -25.3981 H       1  UNL1        0.0336
     90 H          13.5417    7.7421  -28.1670 H       1  UNL1        0.0234
     91 H          14.9752    7.1959  -27.3303 H       1  UNL1        0.0234
     92 H          14.0821    8.5713  -26.7271 H       1  UNL1        0.0234
     93 H          12.5675    5.3978  -27.9548 H       1  UNL1        0.0234
     94 H          12.4590    4.6633  -26.3731 H       1  UNL1        0.0234
     95 H          14.0200    4.8966  -27.1228 H       1  UNL1        0.0234
     96 H          10.9455   11.0662  -27.9768 H       1  UNL1        0.0319
     97 H           9.5193   13.3188  -26.5913 H       1  UNL1        0.0233
     98 H           8.7562   11.9402  -27.3464 H       1  UNL1        0.0233
     99 H           9.6341   13.0950  -28.3204 H       1  UNL1        0.0233
    100 H          12.0625   13.4124  -26.4708 H       1  UNL1        0.0233
    101 H          12.1289   13.1863  -28.2021 H       1  UNL1        0.0233
    102 H          12.9932   12.0962  -27.1449 H       1  UNL1        0.0233
@<TRIPOS>BOND
     1     1    22    1
     2     1    16    1
     3     2    17    1
     4     2    23    1
     5     3    24    1
     6     3    18    1
     7     4    19    2
     8     5    20    2
     9     6    21    2
    10     7    22    2
    11     8    23    2
    12     9    24    2
    13    10    25    1
    14    10    19   am
    15    10    13    1
    16    11    26    1
    17    11    14    1
    18    11    20   am
    19    12    27    1
    20    12    15    1
    21    12    21   am
    22    13    23    1
    23    13    34    1
    24    14    31    1
    25    14    22    1
    26    15    43    1
    27    15    24    1
    28    16    28    1
    29    16    19    1
    30    17    40    1
    31    17    21    1
    32    18    20    1
    33    18    37    1
    34    28    30    1
    35    28    29    1
    36    31    32    1
    37    31    33    1
    38    34    36    1
    39    34    35    1
    40    37    38    1
    41    37    39    1
    42    40    41    1
    43    40    42    1
    44    43    44    1
    45    43    45    1
    46    13    46    1
    47    14    47    1
    48    15    48    1
    49    16    49    1
    50    17    50    1
    51    18    51    1
    52    25    52    1
    53    25    53    1
    54    25    54    1
    55    26    55    1
    56    26    56    1
    57    26    57    1
    58    27    58    1
    59    27    59    1
    60    27    60    1
    61    28    61    1
    62    29    62    1
    63    29    63    1
    64    29    64    1
    65    30    65    1
    66    30    66    1
    67    30    67    1
    68    31    68    1
    69    32    69    1
    70    32    70    1
    71    32    71    1
    72    33    72    1
    73    33    73    1
    74    33    74    1
    75    34    75    1
    76    35    76    1
    77    35    77    1
    78    35    78    1
    79    36    79    1
    80    36    80    1
    81    36    81    1
    82    37    82    1
    83    38    83    1
    84    38    84    1
    85    38    85    1
    86    39    86    1
    87    39    87    1
    88    39    88    1
    89    40    89    1
    90    41    90    1
    91    41    91    1
    92    41    92    1
    93    42    93    1
    94    42    94    1
    95    42    95    1
    96    43    96    1
    97    44    97    1
    98    44    98    1
    99    44    99    1
   100    45   100    1
   101    45   101    1
   102    45   102    1
