@<TRIPOS>MOLECULE
ENB-Site2_1h.pdb
  102   102     1     0     0
SMALL
bcc


@<TRIPOS>ATOM
      1 O            5.8830     6.5070   -24.2400 os         1 UNL      -0.419900
      2 O1          10.9570     6.4700   -25.2540 os         1 UNL      -0.419900
      3 O2           9.0230    10.6820   -24.3210 os         1 UNL      -0.419900
      4 O3           8.1400     6.6780   -22.9770 o          1 UNL      -0.577100
      5 O4           6.8790     9.2790   -22.4170 o          1 UNL      -0.577100
      6 O5          12.7660     9.1480   -25.0000 o          1 UNL      -0.577100
      7 O6           6.6490     7.5950   -26.1230 o          1 UNL      -0.538667
      8 O7          12.3670     6.6560   -23.4430 o          1 UNL      -0.538667
      9 O8           9.6800    12.8400   -24.7490 o          1 UNL      -0.538667
     10 N            9.2130     4.9240   -24.0360 n          1 UNL      -0.467133
     11 N1           6.1230     9.8860   -24.5250 n          1 UNL      -0.467133
     12 N2          10.7390     9.5740   -26.0600 n          1 UNL      -0.467133
     13 C           10.4520     5.1990   -23.2800 c3         1 UNL       0.067033
     14 C1           5.1890     8.7410   -24.5490 c3         1 UNL       0.067033
     15 C2          10.8450    11.0330   -25.8530 c3         1 UNL       0.067033
     16 C3           6.7740     5.3930   -24.4640 c3         1 UNL       0.092433
     17 C4          11.7550     7.2850   -26.1290 c3         1 UNL       0.092433
     18 C5           7.9960    11.1400   -23.4210 c3         1 UNL       0.092433
     19 C6           8.0950     5.7260   -23.7650 c          1 UNL       0.649100
     20 C7           6.9550    10.0230   -23.3990 c          1 UNL       0.649100
     21 C8          11.8060     8.7480   -25.6660 c          1 UNL       0.649100
     22 C9           5.9870     7.5680   -25.0940 c          1 UNL       0.630433
     23 C10         11.3640     6.2020   -23.9840 c          1 UNL       0.630433
     24 C11          9.7850    11.6320   -24.9310 c          1 UNL       0.630433
     25 C12          9.2470     3.8580   -25.0420 c3         1 UNL       0.066967
     26 C13          6.1430    10.7770   -25.6890 c3         1 UNL       0.066967
     27 C14          9.5970     9.0820   -26.8340 c3         1 UNL       0.066967
     28 C15          6.1230     4.1730   -23.8300 c3         1 UNL      -0.072033
     29 C16          4.7540     4.5310   -23.2530 c3         1 UNL      -0.093767
     30 C17          5.9940     3.0390   -24.8460 c3         1 UNL      -0.093767
     31 C18          3.9160     8.9340   -25.3630 c3         1 UNL      -0.070367
     32 C19          4.0810     8.3520   -26.7650 c3         1 UNL      -0.103100
     33 C20          2.7230     8.2960   -24.6550 c3         1 UNL      -0.103100
     34 C21         11.2470     3.9440   -22.9210 c3         1 UNL      -0.070367
     35 C22         11.6320     3.9540   -21.4420 c3         1 UNL      -0.103100
     36 C23         12.4930     3.8240   -23.7960 c3         1 UNL      -0.103100
     37 C24          8.6160    11.3600   -22.0440 c3         1 UNL      -0.072033
     38 C25          9.9540    10.6300   -21.9320 c3         1 UNL      -0.093767
     39 C26          8.7940    12.8500   -21.7630 c3         1 UNL      -0.093767
     40 C27         13.1450     6.6880   -26.3510 c3         1 UNL      -0.072033
     41 C28         14.0000     7.6190   -27.2080 c3         1 UNL      -0.093767
     42 C29         13.0400     5.3080   -26.9990 c3         1 UNL      -0.093767
     43 C30         10.8810    11.7830   -27.1850 c3         1 UNL      -0.070367
     44 C31          9.6020    12.5950   -27.3750 c3         1 UNL      -0.103100
     45 C32         12.1080    12.6870   -27.2560 c3         1 UNL      -0.103100
     46 H           10.1070     5.6340   -22.3650 h1         1 UNL       0.124700
     47 H1           4.8240     8.5940   -23.5540 h1         1 UNL       0.124700
     48 H2          11.7760    11.1640   -25.3420 h1         1 UNL       0.124700
     49 H3           6.9580     5.2040   -25.5010 h1         1 UNL       0.089367
     50 H4          11.2720     7.2910   -27.0840 h1         1 UNL       0.089367
     51 H5           7.5490    12.0650   -23.7190 h1         1 UNL       0.089367
     52 H6           8.2860     3.7740   -25.5050 h1         1 UNL       0.051256
     53 H7           9.4980     2.9310   -24.5710 h1         1 UNL       0.051256
     54 H8           9.9810     4.0910   -25.7840 h1         1 UNL       0.051256
     55 H9           5.4130    10.4510   -26.4000 h1         1 UNL       0.051256
     56 H10          7.1140    10.7550   -26.1380 h1         1 UNL       0.051256
     57 H11          5.9170    11.7750   -25.3780 h1         1 UNL       0.051256
     58 H12          8.9150     9.8870   -27.0150 h1         1 UNL       0.051256
     59 H13          9.1000     8.3100   -26.2850 h1         1 UNL       0.051256
     60 H14          9.9420     8.6900   -27.7680 h1         1 UNL       0.051256
     61 H15          6.7500     3.8390   -23.0300 hc         1 UNL       0.078367
     62 H16          4.1120     4.8680   -24.0400 hc         1 UNL       0.041922
     63 H17          4.8650     5.3080   -22.5260 hc         1 UNL       0.041922
     64 H18          4.3260     3.6670   -22.7890 hc         1 UNL       0.041922
     65 H19          5.3690     3.3540   -25.6550 hc         1 UNL       0.041922
     66 H20          5.5600     2.1830   -24.3720 hc         1 UNL       0.041922
     67 H21          6.9630     2.7850   -25.2220 hc         1 UNL       0.041922
     68 H22          3.7320     9.9840   -25.4540 hc         1 UNL       0.068700
     69 H23          4.2660     7.3010   -26.6950 hc         1 UNL       0.044367
     70 H24          4.9050     8.8280   -27.2540 hc         1 UNL       0.044367
     71 H25          3.1870     8.5200   -27.3280 hc         1 UNL       0.044367
     72 H26          2.8890     7.2440   -24.5550 hc         1 UNL       0.044367
     73 H27          1.8360     8.4640   -25.2290 hc         1 UNL       0.044367
     74 H28          2.6080     8.7330   -23.6850 hc         1 UNL       0.044367
     75 H29         10.6250     3.0930   -23.1030 hc         1 UNL       0.068700
     76 H30         12.2560     4.8000   -21.2410 hc         1 UNL       0.044367
     77 H31         12.1630     3.0560   -21.2060 hc         1 UNL       0.044367
     78 H32         10.7470     4.0130   -20.8430 hc         1 UNL       0.044367
     79 H33         13.1290     4.6680   -23.6280 hc         1 UNL       0.044367
     80 H34         12.2040     3.7940   -24.8260 hc         1 UNL       0.044367
     81 H35         13.0190     2.9260   -23.5470 hc         1 UNL       0.044367
     82 H36          7.9500    10.9570   -21.3100 hc         1 UNL       0.078367
     83 H37         10.6350    11.0200   -22.6590 hc         1 UNL       0.041922
     84 H38          9.8060     9.5850   -22.1060 hc         1 UNL       0.041922
     85 H39         10.3580    10.7740   -20.9520 hc         1 UNL       0.041922
     86 H40          9.4580    13.2730   -22.4870 hc         1 UNL       0.041922
     87 H41          9.2040    12.9820   -20.7830 hc         1 UNL       0.041922
     88 H42          7.8450    13.3400   -21.8210 hc         1 UNL       0.041922
     89 H43         13.6190     6.5780   -25.3980 hc         1 UNL       0.078367
     90 H44         13.5420     7.7420   -28.1670 hc         1 UNL       0.041922
     91 H45         14.9750     7.1960   -27.3300 hc         1 UNL       0.041922
     92 H46         14.0820     8.5710   -26.7270 hc         1 UNL       0.041922
     93 H47         12.5680     5.3980   -27.9550 hc         1 UNL       0.041922
     94 H48         12.4590     4.6630   -26.3730 hc         1 UNL       0.041922
     95 H49         14.0200     4.8970   -27.1230 hc         1 UNL       0.041922
     96 H50         10.9450    11.0660   -27.9770 hc         1 UNL       0.068700
     97 H51          9.5190    13.3190   -26.5910 hc         1 UNL       0.044367
     98 H52          8.7560    11.9400   -27.3460 hc         1 UNL       0.044367
     99 H53          9.6340    13.0950   -28.3200 hc         1 UNL       0.044367
    100 H54         12.0620    13.4120   -26.4710 hc         1 UNL       0.044367
    101 H55         12.1290    13.1860   -28.2020 hc         1 UNL       0.044367
    102 H56         12.9930    12.0960   -27.1450 hc         1 UNL       0.044367
@<TRIPOS>BOND
     1     1    22 1   
     2     1    16 1   
     3     2    17 1   
     4     2    23 1   
     5     3    24 1   
     6     3    18 1   
     7     4    19 2   
     8     5    20 2   
     9     6    21 2   
    10     7    22 2   
    11     8    23 2   
    12     9    24 2   
    13    10    25 1   
    14    10    19 1   
    15    10    13 1   
    16    11    26 1   
    17    11    14 1   
    18    11    20 1   
    19    12    27 1   
    20    12    15 1   
    21    12    21 1   
    22    13    23 1   
    23    13    34 1   
    24    13    46 1   
    25    14    31 1   
    26    14    22 1   
    27    14    47 1   
    28    15    43 1   
    29    15    24 1   
    30    15    48 1   
    31    16    28 1   
    32    16    19 1   
    33    16    49 1   
    34    17    40 1   
    35    17    21 1   
    36    17    50 1   
    37    18    20 1   
    38    18    37 1   
    39    18    51 1   
    40    25    52 1   
    41    25    53 1   
    42    25    54 1   
    43    26    55 1   
    44    26    56 1   
    45    26    57 1   
    46    27    58 1   
    47    27    59 1   
    48    27    60 1   
    49    28    30 1   
    50    28    29 1   
    51    28    61 1   
    52    29    62 1   
    53    29    63 1   
    54    29    64 1   
    55    30    65 1   
    56    30    66 1   
    57    30    67 1   
    58    31    32 1   
    59    31    33 1   
    60    31    68 1   
    61    32    69 1   
    62    32    70 1   
    63    32    71 1   
    64    33    72 1   
    65    33    73 1   
    66    33    74 1   
    67    34    36 1   
    68    34    35 1   
    69    34    75 1   
    70    35    76 1   
    71    35    77 1   
    72    35    78 1   
    73    36    79 1   
    74    36    80 1   
    75    36    81 1   
    76    37    38 1   
    77    37    39 1   
    78    37    82 1   
    79    38    83 1   
    80    38    84 1   
    81    38    85 1   
    82    39    86 1   
    83    39    87 1   
    84    39    88 1   
    85    40    41 1   
    86    40    42 1   
    87    40    89 1   
    88    41    90 1   
    89    41    91 1   
    90    41    92 1   
    91    42    93 1   
    92    42    94 1   
    93    42    95 1   
    94    43    44 1   
    95    43    45 1   
    96    43    96 1   
    97    44    97 1   
    98    44    98 1   
    99    44    99 1   
   100    45   100 1   
   101    45   101 1   
   102    45   102 1   
@<TRIPOS>SUBSTRUCTURE
     1 UNL         1 TEMP              0 ****  ****    0 ROOT
