@<TRIPOS>MOLECULE
Results/Site2/APO/ENA1/ENA1-Site2_1.pdb
 108 108 0 0 0
SMALL
GASTEIGER

@<TRIPOS>ATOM
      1  O          5.1600   24.9100   12.8630 O.3     1  UNL1       -0.4503
      2  O          6.7880   21.6410   16.0440 O.3     1  UNL1       -0.4503
      3  O          5.3270   24.9170   17.9360 O.3     1  UNL1       -0.4503
      4  O          4.3570   23.0980   14.5990 O.2     1  UNL1       -0.2715
      5  O          7.2520   25.1750   13.8020 O.2     1  UNL1       -0.2487
      6  O          4.0390   26.0760   16.0090 O.2     1  UNL1       -0.2715
      7  O          6.4420   19.4440   16.6350 O.2     1  UNL1       -0.2487
      8  O          8.4200   20.4360   18.8310 O.2     1  UNL1       -0.2715
      9  O          6.9770   24.5700   19.5100 O.2     1  UNL1       -0.2487
     10  N          5.5690   21.3310   13.7100 N.am    1  UNL1       -0.2878
     11  N          5.9770   27.1560   15.3300 N.am    1  UNL1       -0.2878
     12  N          6.6080   21.8260   19.2330 N.am    1  UNL1       -0.2878
     13  C          5.1660   20.4220   14.8100 C.3     1  UNL1        0.1253
     14  C          5.6180   26.9780   13.9090 C.3     1  UNL1        0.1253
     15  C          5.4490   23.5410   12.5150 C.3     1  UNL1        0.1808
     16  C          5.5480   22.7370   18.7530 C.3     1  UNL1        0.1250
     17  C          5.7580   26.2660   17.6560 C.3     1  UNL1        0.1808
     18  C          7.8130   21.8860   17.0120 C.3     1  UNL1        0.1808
     19  C          5.0780   22.6450   13.7020 C.2     1  UNL1        0.2571
     20  C          6.1350   25.5970   13.5310 C.2     1  UNL1        0.3288
     21  C          5.1650   26.5110   16.2740 C.2     1  UNL1        0.2571
     22  C          6.2280   20.4070   15.9100 C.2     1  UNL1        0.3288
     23  C          7.6350   21.3020   18.4300 C.2     1  UNL1        0.2571
     24  C          6.0610   24.1670   18.8090 C.2     1  UNL1        0.3288
     25  C          6.5260   20.7950   12.7370 C.3     1  UNL1        0.0041
     26  C          7.2180   27.8580   15.6660 C.3     1  UNL1        0.0041
     27  C          6.5830   21.4420   20.6440 C.3     1  UNL1        0.0041
     28  C          4.5870   23.1970   11.3080 C.3     1  UNL1       -0.0008
     29  C          4.0480   24.4660   10.6500 C.3     1  UNL1       -0.0588
     30  C          5.3770   22.3650   10.2990 C.3     1  UNL1       -0.0588
     31  C          6.1610   28.0150   12.9350 C.3     1  UNL1       -0.0151
     32  C          5.2720   28.0700   11.6900 C.3     1  UNL1       -0.0602
     33  C          6.2610   29.4150   13.5670 C.3     1  UNL1       -0.0511
     34  C          7.2460   30.3340   12.8570 C.3     1  UNL1       -0.0650
     35  C          4.8310   19.0080   14.3360 C.3     1  UNL1       -0.0151
     36  C          4.0380   18.2720   15.4190 C.3     1  UNL1       -0.0602
     37  C          4.0380   19.0030   13.0170 C.3     1  UNL1       -0.0511
     38  C          4.7120   18.2160   11.9030 C.3     1  UNL1       -0.0650
     39  C          5.1680   27.2270   18.6720 C.3     1  UNL1       -0.0008
     40  C          4.4260   28.3620   17.9710 C.3     1  UNL1       -0.0588
     41  C          6.2620   27.7830   19.5820 C.3     1  UNL1       -0.0588
     42  C          9.1430   21.4560   16.3930 C.3     1  UNL1       -0.0008
     43  C          9.0530   21.4520   14.8670 C.3     1  UNL1       -0.0588
     44  C         10.2760   22.3680   16.8590 C.3     1  UNL1       -0.0588
     45  C          4.2170   22.6290   19.4950 C.3     1  UNL1       -0.0177
     46  C          4.0380   23.8030   20.4570 C.3     1  UNL1       -0.0605
     47  C          4.1240   21.3030   20.2480 C.3     1  UNL1       -0.0605
     48 H           4.2564   20.8139   15.2149 H       1  UNL1        0.0619
     49 H           4.5580   27.0972   13.8249 H       1  UNL1        0.0619
     50 H           6.4844   23.3983   12.2860 H       1  UNL1        0.0835
     51 H           5.3307   22.4367   17.7493 H       1  UNL1        0.0619
     52 H           6.8181   26.4044   17.6990 H       1  UNL1        0.0835
     53 H           7.7645   22.9349   17.2177 H       1  UNL1        0.0835
     54 H           6.7373   21.5390   11.9976 H       1  UNL1        0.0429
     55 H           6.1079   19.9309   12.2643 H       1  UNL1        0.0429
     56 H           7.4312   20.5240   13.2391 H       1  UNL1        0.0429
     57 H           7.6507   28.2636   14.7754 H       1  UNL1        0.0429
     58 H           7.9051   27.1722   16.1161 H       1  UNL1        0.0429
     59 H           7.0047   28.6510   16.3520 H       1  UNL1        0.0429
     60 H           7.4023   20.7851   20.8494 H       1  UNL1        0.0429
     61 H           5.6621   20.9424   20.8614 H       1  UNL1        0.0429
     62 H           6.6664   22.3175   21.2534 H       1  UNL1        0.0429
     63 H           3.7561   22.6145   11.6474 H       1  UNL1        0.0336
     64 H           4.8656   25.0629   10.3034 H       1  UNL1        0.0234
     65 H           3.4772   25.0228   11.3634 H       1  UNL1        0.0234
     66 H           3.4237   24.2011    9.8224 H       1  UNL1        0.0234
     67 H           6.2138   22.9314    9.9471 H       1  UNL1        0.0234
     68 H           4.7453   22.1115    9.4734 H       1  UNL1        0.0234
     69 H           5.7251   21.4695   10.7699 H       1  UNL1        0.0234
     70 H           7.1521   27.7146   12.6659 H       1  UNL1        0.0321
     71 H           4.2842   28.3712   11.9701 H       1  UNL1        0.0233
     72 H           5.2344   27.1020   11.2356 H       1  UNL1        0.0233
     73 H           5.6760   28.7753   10.9941 H       1  UNL1        0.0233
     74 H           6.5733   29.3055   14.5846 H       1  UNL1        0.0266
     75 H           5.2945   29.8667   13.4850 H       1  UNL1        0.0266
     76 H           8.2295   29.9166   12.9162 H       1  UNL1        0.0230
     77 H           7.2379   31.2958   13.3258 H       1  UNL1        0.0230
     78 H           6.9627   30.4353   11.8302 H       1  UNL1        0.0230
     79 H           5.7580   18.5058   14.1532 H       1  UNL1        0.0321
     80 H           3.1139   18.7825   15.5934 H       1  UNL1        0.0233
     81 H           4.6083   18.2475   16.3240 H       1  UNL1        0.0233
     82 H           3.8375   17.2716   15.0965 H       1  UNL1        0.0233
     83 H           3.9177   20.0150   12.6910 H       1  UNL1        0.0266
     84 H           3.1016   18.5250   13.2161 H       1  UNL1        0.0266
     85 H           5.6564   18.6627   11.6718 H       1  UNL1        0.0230
     86 H           4.0900   18.2261   11.0324 H       1  UNL1        0.0230
     87 H           4.8636   17.2058   12.2213 H       1  UNL1        0.0230
     88 H           4.4670   26.6896   19.2759 H       1  UNL1        0.0336
     89 H           5.1111   28.9127   17.3608 H       1  UNL1        0.0234
     90 H           3.9973   29.0137   18.7034 H       1  UNL1        0.0234
     91 H           3.6495   27.9551   17.3574 H       1  UNL1        0.0234
     92 H           6.9735   28.3246   18.9944 H       1  UNL1        0.0234
     93 H           6.7539   26.9755   20.0828 H       1  UNL1        0.0234
     94 H           5.8247   28.4383   20.3061 H       1  UNL1        0.0234
     95 H           9.3557   20.4599   16.7208 H       1  UNL1        0.0336
     96 H           8.8404   22.4415   14.5197 H       1  UNL1        0.0234
     97 H           8.2716   20.7898   14.5575 H       1  UNL1        0.0234
     98 H           9.9840   21.1220   14.4557 H       1  UNL1        0.0234
     99 H          10.0810   23.3706   16.5401 H       1  UNL1        0.0234
    100 H          11.2003   22.0328   16.4367 H       1  UNL1        0.0234
    101 H          10.3406   22.3396   17.9267 H       1  UNL1        0.0234
    102 H           3.4293   22.6621   18.7716 H       1  UNL1        0.0319
    103 H           4.8182   23.7864   21.1891 H       1  UNL1        0.0233
    104 H           3.0892   23.7227   20.9451 H       1  UNL1        0.0233
    105 H           4.0813   24.7218   19.9104 H       1  UNL1        0.0233
    106 H           4.9053   21.2514   20.9773 H       1  UNL1        0.0233
    107 H           4.2270   20.4925   19.5571 H       1  UNL1        0.0233
    108 H           3.1746   21.2364   20.7370 H       1  UNL1        0.0233
@<TRIPOS>BOND
     1     1    15    1
     2     1    20    1
     3     2    22    1
     4     2    18    1
     5     3    17    1
     6     3    24    1
     7     4    19    2
     8     5    20    2
     9     6    21    2
    10     7    22    2
    11     8    23    2
    12     9    24    2
    13    10    25    1
    14    10    19   am
    15    10    13    1
    16    11    14    1
    17    11    26    1
    18    11    21   am
    19    12    23   am
    20    12    16    1
    21    12    27    1
    22    13    35    1
    23    13    22    1
    24    14    31    1
    25    14    20    1
    26    15    28    1
    27    15    19    1
    28    16    24    1
    29    16    45    1
    30    17    21    1
    31    17    39    1
    32    18    42    1
    33    18    23    1
    34    28    30    1
    35    28    29    1
    36    31    32    1
    37    31    33    1
    38    33    34    1
    39    35    37    1
    40    35    36    1
    41    37    38    1
    42    39    40    1
    43    39    41    1
    44    42    43    1
    45    42    44    1
    46    45    47    1
    47    45    46    1
    48    13    48    1
    49    14    49    1
    50    15    50    1
    51    16    51    1
    52    17    52    1
    53    18    53    1
    54    25    54    1
    55    25    55    1
    56    25    56    1
    57    26    57    1
    58    26    58    1
    59    26    59    1
    60    27    60    1
    61    27    61    1
    62    27    62    1
    63    28    63    1
    64    29    64    1
    65    29    65    1
    66    29    66    1
    67    30    67    1
    68    30    68    1
    69    30    69    1
    70    31    70    1
    71    32    71    1
    72    32    72    1
    73    32    73    1
    74    33    74    1
    75    33    75    1
    76    34    76    1
    77    34    77    1
    78    34    78    1
    79    35    79    1
    80    36    80    1
    81    36    81    1
    82    36    82    1
    83    37    83    1
    84    37    84    1
    85    38    85    1
    86    38    86    1
    87    38    87    1
    88    39    88    1
    89    40    89    1
    90    40    90    1
    91    40    91    1
    92    41    92    1
    93    41    93    1
    94    41    94    1
    95    42    95    1
    96    43    96    1
    97    43    97    1
    98    43    98    1
    99    44    99    1
   100    44   100    1
   101    44   101    1
   102    45   102    1
   103    46   103    1
   104    46   104    1
   105    46   105    1
   106    47   106    1
   107    47   107    1
   108    47   108    1
