Results/Site2/APO/ENA1/ENA1-Site2_1.pdb
 OpenBabel08312517013D

108108  0  0  1  0  0  0  0  0999 V2000
    5.1600   24.9100   12.8630 O   0  0  0  0  0  0  0  0  0  0  0  0
    6.7880   21.6410   16.0440 O   0  0  0  0  0  0  0  0  0  0  0  0
    5.3270   24.9170   17.9360 O   0  0  0  0  0  0  0  0  0  0  0  0
    4.3570   23.0980   14.5990 O   0  0  0  0  0  0  0  0  0  0  0  0
    7.2520   25.1750   13.8020 O   0  0  0  0  0  0  0  0  0  0  0  0
    4.0390   26.0760   16.0090 O   0  0  0  0  0  0  0  0  0  0  0  0
    6.4420   19.4440   16.6350 O   0  0  0  0  0  0  0  0  0  0  0  0
    8.4200   20.4360   18.8310 O   0  0  0  0  0  0  0  0  0  0  0  0
    6.9770   24.5700   19.5100 O   0  0  0  0  0  0  0  0  0  0  0  0
    5.5690   21.3310   13.7100 N   0  0  0  0  0  0  0  0  0  0  0  0
    5.9770   27.1560   15.3300 N   0  0  0  0  0  0  0  0  0  0  0  0
    6.6080   21.8260   19.2330 N   0  0  0  0  0  0  0  0  0  0  0  0
    5.1660   20.4220   14.8100 C   0  0  2  0  0  0  0  0  0  0  0  0
    5.6180   26.9780   13.9090 C   0  0  2  0  0  0  0  0  0  0  0  0
    5.4490   23.5410   12.5150 C   0  0  1  0  0  0  0  0  0  0  0  0
    5.5480   22.7370   18.7530 C   0  0  2  0  0  0  0  0  0  0  0  0
    5.7580   26.2660   17.6560 C   0  0  1  0  0  0  0  0  0  0  0  0
    7.8130   21.8860   17.0120 C   0  0  1  0  0  0  0  0  0  0  0  0
    5.0780   22.6450   13.7020 C   0  0  0  0  0  0  0  0  0  0  0  0
    6.1350   25.5970   13.5310 C   0  0  0  0  0  0  0  0  0  0  0  0
    5.1650   26.5110   16.2740 C   0  0  0  0  0  0  0  0  0  0  0  0
    6.2280   20.4070   15.9100 C   0  0  0  0  0  0  0  0  0  0  0  0
    7.6350   21.3020   18.4300 C   0  0  0  0  0  0  0  0  0  0  0  0
    6.0610   24.1670   18.8090 C   0  0  0  0  0  0  0  0  0  0  0  0
    6.5260   20.7950   12.7370 C   0  0  0  0  0  0  0  0  0  0  0  0
    7.2180   27.8580   15.6660 C   0  0  0  0  0  0  0  0  0  0  0  0
    6.5830   21.4420   20.6440 C   0  0  0  0  0  0  0  0  0  0  0  0
    4.5870   23.1970   11.3080 C   0  0  0  0  0  0  0  0  0  0  0  0
    4.0480   24.4660   10.6500 C   0  0  0  0  0  0  0  0  0  0  0  0
    5.3770   22.3650   10.2990 C   0  0  0  0  0  0  0  0  0  0  0  0
    6.1610   28.0150   12.9350 C   0  0  1  0  0  0  0  0  0  0  0  0
    5.2720   28.0700   11.6900 C   0  0  0  0  0  0  0  0  0  0  0  0
    6.2610   29.4150   13.5670 C   0  0  0  0  0  0  0  0  0  0  0  0
    7.2460   30.3340   12.8570 C   0  0  0  0  0  0  0  0  0  0  0  0
    4.8310   19.0080   14.3360 C   0  0  1  0  0  0  0  0  0  0  0  0
    4.0380   18.2720   15.4190 C   0  0  0  0  0  0  0  0  0  0  0  0
    4.0380   19.0030   13.0170 C   0  0  0  0  0  0  0  0  0  0  0  0
    4.7120   18.2160   11.9030 C   0  0  0  0  0  0  0  0  0  0  0  0
    5.1680   27.2270   18.6720 C   0  0  0  0  0  0  0  0  0  0  0  0
    4.4260   28.3620   17.9710 C   0  0  0  0  0  0  0  0  0  0  0  0
    6.2620   27.7830   19.5820 C   0  0  0  0  0  0  0  0  0  0  0  0
    9.1430   21.4560   16.3930 C   0  0  0  0  0  0  0  0  0  0  0  0
    9.0530   21.4520   14.8670 C   0  0  0  0  0  0  0  0  0  0  0  0
   10.2760   22.3680   16.8590 C   0  0  0  0  0  0  0  0  0  0  0  0
    4.2170   22.6290   19.4950 C   0  0  0  0  0  0  0  0  0  0  0  0
    4.0380   23.8030   20.4570 C   0  0  0  0  0  0  0  0  0  0  0  0
    4.1240   21.3030   20.2480 C   0  0  0  0  0  0  0  0  0  0  0  0
    4.2564   20.8139   15.2149 H   0  0  0  0  0  0  0  0  0  0  0  0
    4.5580   27.0972   13.8249 H   0  0  0  0  0  0  0  0  0  0  0  0
    6.4844   23.3983   12.2860 H   0  0  0  0  0  0  0  0  0  0  0  0
    5.3307   22.4367   17.7493 H   0  0  0  0  0  0  0  0  0  0  0  0
    6.8181   26.4044   17.6990 H   0  0  0  0  0  0  0  0  0  0  0  0
    7.7645   22.9349   17.2177 H   0  0  0  0  0  0  0  0  0  0  0  0
    6.7373   21.5390   11.9976 H   0  0  0  0  0  0  0  0  0  0  0  0
    6.1079   19.9309   12.2643 H   0  0  0  0  0  0  0  0  0  0  0  0
    7.4312   20.5240   13.2391 H   0  0  0  0  0  0  0  0  0  0  0  0
    7.6507   28.2636   14.7754 H   0  0  0  0  0  0  0  0  0  0  0  0
    7.9051   27.1722   16.1161 H   0  0  0  0  0  0  0  0  0  0  0  0
    7.0047   28.6510   16.3520 H   0  0  0  0  0  0  0  0  0  0  0  0
    7.4023   20.7851   20.8494 H   0  0  0  0  0  0  0  0  0  0  0  0
    5.6621   20.9424   20.8614 H   0  0  0  0  0  0  0  0  0  0  0  0
    6.6664   22.3175   21.2534 H   0  0  0  0  0  0  0  0  0  0  0  0
    3.7561   22.6145   11.6474 H   0  0  0  0  0  0  0  0  0  0  0  0
    4.8656   25.0629   10.3034 H   0  0  0  0  0  0  0  0  0  0  0  0
    3.4772   25.0228   11.3634 H   0  0  0  0  0  0  0  0  0  0  0  0
    3.4237   24.2011    9.8224 H   0  0  0  0  0  0  0  0  0  0  0  0
    6.2138   22.9314    9.9471 H   0  0  0  0  0  0  0  0  0  0  0  0
    4.7453   22.1115    9.4734 H   0  0  0  0  0  0  0  0  0  0  0  0
    5.7251   21.4695   10.7699 H   0  0  0  0  0  0  0  0  0  0  0  0
    7.1521   27.7146   12.6659 H   0  0  0  0  0  0  0  0  0  0  0  0
    4.2842   28.3712   11.9701 H   0  0  0  0  0  0  0  0  0  0  0  0
    5.2344   27.1020   11.2356 H   0  0  0  0  0  0  0  0  0  0  0  0
    5.6760   28.7753   10.9941 H   0  0  0  0  0  0  0  0  0  0  0  0
    6.5733   29.3055   14.5846 H   0  0  0  0  0  0  0  0  0  0  0  0
    5.2945   29.8667   13.4850 H   0  0  0  0  0  0  0  0  0  0  0  0
    8.2295   29.9166   12.9162 H   0  0  0  0  0  0  0  0  0  0  0  0
    7.2379   31.2958   13.3258 H   0  0  0  0  0  0  0  0  0  0  0  0
    6.9627   30.4353   11.8302 H   0  0  0  0  0  0  0  0  0  0  0  0
    5.7580   18.5058   14.1532 H   0  0  0  0  0  0  0  0  0  0  0  0
    3.1139   18.7825   15.5934 H   0  0  0  0  0  0  0  0  0  0  0  0
    4.6083   18.2475   16.3240 H   0  0  0  0  0  0  0  0  0  0  0  0
    3.8375   17.2716   15.0965 H   0  0  0  0  0  0  0  0  0  0  0  0
    3.9177   20.0150   12.6910 H   0  0  0  0  0  0  0  0  0  0  0  0
    3.1016   18.5250   13.2161 H   0  0  0  0  0  0  0  0  0  0  0  0
    5.6564   18.6627   11.6718 H   0  0  0  0  0  0  0  0  0  0  0  0
    4.0900   18.2261   11.0324 H   0  0  0  0  0  0  0  0  0  0  0  0
    4.8636   17.2058   12.2213 H   0  0  0  0  0  0  0  0  0  0  0  0
    4.4670   26.6896   19.2759 H   0  0  0  0  0  0  0  0  0  0  0  0
    5.1111   28.9127   17.3608 H   0  0  0  0  0  0  0  0  0  0  0  0
    3.9973   29.0137   18.7034 H   0  0  0  0  0  0  0  0  0  0  0  0
    3.6495   27.9551   17.3574 H   0  0  0  0  0  0  0  0  0  0  0  0
    6.9735   28.3246   18.9944 H   0  0  0  0  0  0  0  0  0  0  0  0
    6.7539   26.9755   20.0828 H   0  0  0  0  0  0  0  0  0  0  0  0
    5.8247   28.4383   20.3061 H   0  0  0  0  0  0  0  0  0  0  0  0
    9.3557   20.4599   16.7208 H   0  0  0  0  0  0  0  0  0  0  0  0
    8.8404   22.4415   14.5197 H   0  0  0  0  0  0  0  0  0  0  0  0
    8.2716   20.7898   14.5575 H   0  0  0  0  0  0  0  0  0  0  0  0
    9.9840   21.1220   14.4557 H   0  0  0  0  0  0  0  0  0  0  0  0
   10.0810   23.3706   16.5401 H   0  0  0  0  0  0  0  0  0  0  0  0
   11.2003   22.0328   16.4367 H   0  0  0  0  0  0  0  0  0  0  0  0
   10.3406   22.3396   17.9267 H   0  0  0  0  0  0  0  0  0  0  0  0
    3.4293   22.6621   18.7716 H   0  0  0  0  0  0  0  0  0  0  0  0
    4.8182   23.7864   21.1891 H   0  0  0  0  0  0  0  0  0  0  0  0
    3.0892   23.7227   20.9451 H   0  0  0  0  0  0  0  0  0  0  0  0
    4.0813   24.7218   19.9104 H   0  0  0  0  0  0  0  0  0  0  0  0
    4.9053   21.2514   20.9773 H   0  0  0  0  0  0  0  0  0  0  0  0
    4.2270   20.4925   19.5571 H   0  0  0  0  0  0  0  0  0  0  0  0
    3.1746   21.2364   20.7370 H   0  0  0  0  0  0  0  0  0  0  0  0
  1 15  1  0  0  0  0
  1 20  1  0  0  0  0
  2 22  1  0  0  0  0
  2 18  1  0  0  0  0
  3 17  1  0  0  0  0
  3 24  1  0  0  0  0
  4 19  2  0  0  0  0
  5 20  2  0  0  0  0
  6 21  2  0  0  0  0
  7 22  2  0  0  0  0
  8 23  2  0  0  0  0
  9 24  2  0  0  0  0
 10 25  1  0  0  0  0
 10 19  1  0  0  0  0
 10 13  1  0  0  0  0
 11 14  1  0  0  0  0
 11 26  1  0  0  0  0
 11 21  1  0  0  0  0
 12 23  1  0  0  0  0
 12 16  1  0  0  0  0
 12 27  1  0  0  0  0
 13 35  1  0  0  0  0
 13 22  1  0  0  0  0
 13 48  1  1  0  0  0
 14 31  1  0  0  0  0
 14 20  1  0  0  0  0
 14 49  1  6  0  0  0
 15 28  1  0  0  0  0
 15 19  1  0  0  0  0
 15 50  1  6  0  0  0
 16 24  1  0  0  0  0
 16 45  1  0  0  0  0
 16 51  1  6  0  0  0
 17 21  1  0  0  0  0
 17 39  1  0  0  0  0
 17 52  1  6  0  0  0
 18 42  1  0  0  0  0
 18 23  1  0  0  0  0
 18 53  1  1  0  0  0
 25 54  1  0  0  0  0
 25 55  1  0  0  0  0
 25 56  1  0  0  0  0
 26 57  1  0  0  0  0
 26 58  1  0  0  0  0
 26 59  1  0  0  0  0
 27 60  1  0  0  0  0
 27 61  1  0  0  0  0
 27 62  1  0  0  0  0
 28 30  1  0  0  0  0
 28 29  1  0  0  0  0
 28 63  1  0  0  0  0
 29 64  1  0  0  0  0
 29 65  1  0  0  0  0
 29 66  1  0  0  0  0
 30 67  1  0  0  0  0
 30 68  1  0  0  0  0
 30 69  1  0  0  0  0
 31 32  1  0  0  0  0
 31 33  1  0  0  0  0
 31 70  1  6  0  0  0
 32 71  1  0  0  0  0
 32 72  1  0  0  0  0
 32 73  1  0  0  0  0
 33 34  1  0  0  0  0
 33 74  1  0  0  0  0
 33 75  1  0  0  0  0
 34 76  1  0  0  0  0
 34 77  1  0  0  0  0
 34 78  1  0  0  0  0
 35 37  1  0  0  0  0
 35 36  1  0  0  0  0
 35 79  1  6  0  0  0
 36 80  1  0  0  0  0
 36 81  1  0  0  0  0
 36 82  1  0  0  0  0
 37 38  1  0  0  0  0
 37 83  1  0  0  0  0
 37 84  1  0  0  0  0
 38 85  1  0  0  0  0
 38 86  1  0  0  0  0
 38 87  1  0  0  0  0
 39 40  1  0  0  0  0
 39 41  1  0  0  0  0
 39 88  1  0  0  0  0
 40 89  1  0  0  0  0
 40 90  1  0  0  0  0
 40 91  1  0  0  0  0
 41 92  1  0  0  0  0
 41 93  1  0  0  0  0
 41 94  1  0  0  0  0
 42 43  1  0  0  0  0
 42 44  1  0  0  0  0
 42 95  1  0  0  0  0
 43 96  1  0  0  0  0
 43 97  1  0  0  0  0
 43 98  1  0  0  0  0
 44 99  1  0  0  0  0
 44100  1  0  0  0  0
 44101  1  0  0  0  0
 45 47  1  0  0  0  0
 45 46  1  0  0  0  0
 45102  1  0  0  0  0
 46103  1  0  0  0  0
 46104  1  0  0  0  0
 46105  1  0  0  0  0
 47106  1  0  0  0  0
 47107  1  0  0  0  0
 47108  1  0  0  0  0
M  END
