Results/Site2/HOLO/ENB/ENB-Site2_1.pdb
 OpenBabel08312517003D

102102  0  0  1  0  0  0  0  0999 V2000
    5.8830    6.5070  -24.2400 O   0  0  0  0  0  0  0  0  0  0  0  0
   10.9570    6.4700  -25.2540 O   0  0  0  0  0  0  0  0  0  0  0  0
    9.0230   10.6820  -24.3210 O   0  0  0  0  0  0  0  0  0  0  0  0
    8.1400    6.6780  -22.9770 O   0  0  0  0  0  0  0  0  0  0  0  0
    6.8790    9.2790  -22.4170 O   0  0  0  0  0  0  0  0  0  0  0  0
   12.7660    9.1480  -25.0000 O   0  0  0  0  0  0  0  0  0  0  0  0
    6.6490    7.5950  -26.1230 O   0  0  0  0  0  0  0  0  0  0  0  0
   12.3670    6.6560  -23.4430 O   0  0  0  0  0  0  0  0  0  0  0  0
    9.6800   12.8400  -24.7490 O   0  0  0  0  0  0  0  0  0  0  0  0
    9.2130    4.9240  -24.0360 N   0  0  0  0  0  0  0  0  0  0  0  0
    6.1230    9.8860  -24.5250 N   0  0  0  0  0  0  0  0  0  0  0  0
   10.7390    9.5740  -26.0600 N   0  0  0  0  0  0  0  0  0  0  0  0
   10.4520    5.1990  -23.2800 C   0  0  2  0  0  0  0  0  0  0  0  0
    5.1890    8.7410  -24.5490 C   0  0  2  0  0  0  0  0  0  0  0  0
   10.8450   11.0330  -25.8530 C   0  0  2  0  0  0  0  0  0  0  0  0
    6.7740    5.3930  -24.4640 C   0  0  1  0  0  0  0  0  0  0  0  0
   11.7550    7.2850  -26.1290 C   0  0  1  0  0  0  0  0  0  0  0  0
    7.9960   11.1400  -23.4210 C   0  0  1  0  0  0  0  0  0  0  0  0
    8.0950    5.7260  -23.7650 C   0  0  0  0  0  0  0  0  0  0  0  0
    6.9550   10.0230  -23.3990 C   0  0  0  0  0  0  0  0  0  0  0  0
   11.8060    8.7480  -25.6660 C   0  0  0  0  0  0  0  0  0  0  0  0
    5.9870    7.5680  -25.0940 C   0  0  0  0  0  0  0  0  0  0  0  0
   11.3640    6.2020  -23.9840 C   0  0  0  0  0  0  0  0  0  0  0  0
    9.7850   11.6320  -24.9310 C   0  0  0  0  0  0  0  0  0  0  0  0
    9.2470    3.8580  -25.0420 C   0  0  0  0  0  0  0  0  0  0  0  0
    6.1430   10.7770  -25.6890 C   0  0  0  0  0  0  0  0  0  0  0  0
    9.5970    9.0820  -26.8340 C   0  0  0  0  0  0  0  0  0  0  0  0
    6.1230    4.1730  -23.8300 C   0  0  0  0  0  0  0  0  0  0  0  0
    4.7540    4.5310  -23.2530 C   0  0  0  0  0  0  0  0  0  0  0  0
    5.9940    3.0390  -24.8460 C   0  0  0  0  0  0  0  0  0  0  0  0
    3.9160    8.9340  -25.3630 C   0  0  0  0  0  0  0  0  0  0  0  0
    4.0810    8.3520  -26.7650 C   0  0  0  0  0  0  0  0  0  0  0  0
    2.7230    8.2960  -24.6550 C   0  0  0  0  0  0  0  0  0  0  0  0
   11.2470    3.9440  -22.9210 C   0  0  0  0  0  0  0  0  0  0  0  0
   11.6320    3.9540  -21.4420 C   0  0  0  0  0  0  0  0  0  0  0  0
   12.4930    3.8240  -23.7960 C   0  0  0  0  0  0  0  0  0  0  0  0
    8.6160   11.3600  -22.0440 C   0  0  0  0  0  0  0  0  0  0  0  0
    9.9540   10.6300  -21.9320 C   0  0  0  0  0  0  0  0  0  0  0  0
    8.7940   12.8500  -21.7630 C   0  0  0  0  0  0  0  0  0  0  0  0
   13.1450    6.6880  -26.3510 C   0  0  0  0  0  0  0  0  0  0  0  0
   14.0000    7.6190  -27.2080 C   0  0  0  0  0  0  0  0  0  0  0  0
   13.0400    5.3080  -26.9990 C   0  0  0  0  0  0  0  0  0  0  0  0
   10.8810   11.7830  -27.1850 C   0  0  0  0  0  0  0  0  0  0  0  0
    9.6020   12.5950  -27.3750 C   0  0  0  0  0  0  0  0  0  0  0  0
   12.1080   12.6870  -27.2560 C   0  0  0  0  0  0  0  0  0  0  0  0
   10.1067    5.6338  -22.3653 H   0  0  0  0  0  0  0  0  0  0  0  0
    4.8242    8.5938  -23.5539 H   0  0  0  0  0  0  0  0  0  0  0  0
   11.7758   11.1645  -25.3419 H   0  0  0  0  0  0  0  0  0  0  0  0
    6.9578    5.2044  -25.5011 H   0  0  0  0  0  0  0  0  0  0  0  0
   11.2718    7.2906  -27.0837 H   0  0  0  0  0  0  0  0  0  0  0  0
    7.5488   12.0652  -23.7193 H   0  0  0  0  0  0  0  0  0  0  0  0
    8.2860    3.7737  -25.5050 H   0  0  0  0  0  0  0  0  0  0  0  0
    9.4985    2.9308  -24.5708 H   0  0  0  0  0  0  0  0  0  0  0  0
    9.9813    4.0915  -25.7844 H   0  0  0  0  0  0  0  0  0  0  0  0
    5.4132   10.4509  -26.4003 H   0  0  0  0  0  0  0  0  0  0  0  0
    7.1138   10.7550  -26.1384 H   0  0  0  0  0  0  0  0  0  0  0  0
    5.9165   11.7754  -25.3779 H   0  0  0  0  0  0  0  0  0  0  0  0
    8.9154    9.8867  -27.0148 H   0  0  0  0  0  0  0  0  0  0  0  0
    9.0998    8.3100  -26.2847 H   0  0  0  0  0  0  0  0  0  0  0  0
    9.9415    8.6898  -27.7680 H   0  0  0  0  0  0  0  0  0  0  0  0
    6.7504    3.8389  -23.0302 H   0  0  0  0  0  0  0  0  0  0  0  0
    4.1122    4.8678  -24.0401 H   0  0  0  0  0  0  0  0  0  0  0  0
    4.8654    5.3085  -22.5264 H   0  0  0  0  0  0  0  0  0  0  0  0
    4.3258    3.6674  -22.7885 H   0  0  0  0  0  0  0  0  0  0  0  0
    5.3689    3.3544  -25.6551 H   0  0  0  0  0  0  0  0  0  0  0  0
    5.5597    2.1835  -24.3724 H   0  0  0  0  0  0  0  0  0  0  0  0
    6.9630    2.7850  -25.2220 H   0  0  0  0  0  0  0  0  0  0  0  0
    3.7317    9.9841  -25.4536 H   0  0  0  0  0  0  0  0  0  0  0  0
    4.2664    7.3005  -26.6951 H   0  0  0  0  0  0  0  0  0  0  0  0
    4.9053    8.8278  -27.2540 H   0  0  0  0  0  0  0  0  0  0  0  0
    3.1869    8.5198  -27.3283 H   0  0  0  0  0  0  0  0  0  0  0  0
    2.8888    7.2437  -24.5547 H   0  0  0  0  0  0  0  0  0  0  0  0
    1.8358    8.4642  -25.2291 H   0  0  0  0  0  0  0  0  0  0  0  0
    2.6084    8.7330  -23.6851 H   0  0  0  0  0  0  0  0  0  0  0  0
   10.6247    3.0927  -23.1027 H   0  0  0  0  0  0  0  0  0  0  0  0
   12.2556    4.8001  -21.2415 H   0  0  0  0  0  0  0  0  0  0  0  0
   12.1629    3.0556  -21.2056 H   0  0  0  0  0  0  0  0  0  0  0  0
   10.7470    4.0133  -20.8435 H   0  0  0  0  0  0  0  0  0  0  0  0
   13.1292    4.6678  -23.6283 H   0  0  0  0  0  0  0  0  0  0  0  0
   12.2041    3.7943  -24.8258 H   0  0  0  0  0  0  0  0  0  0  0  0
   13.0186    2.9259  -23.5469 H   0  0  0  0  0  0  0  0  0  0  0  0
    7.9495   10.9571  -21.3102 H   0  0  0  0  0  0  0  0  0  0  0  0
   10.6350   11.0199  -22.6594 H   0  0  0  0  0  0  0  0  0  0  0  0
    9.8057    9.5848  -22.1065 H   0  0  0  0  0  0  0  0  0  0  0  0
   10.3580   10.7742  -20.9517 H   0  0  0  0  0  0  0  0  0  0  0  0
    9.4585   13.2727  -22.4874 H   0  0  0  0  0  0  0  0  0  0  0  0
    9.2038   12.9818  -20.7834 H   0  0  0  0  0  0  0  0  0  0  0  0
    7.8445   13.3399  -21.8213 H   0  0  0  0  0  0  0  0  0  0  0  0
   13.6191    6.5779  -25.3981 H   0  0  0  0  0  0  0  0  0  0  0  0
   13.5417    7.7421  -28.1670 H   0  0  0  0  0  0  0  0  0  0  0  0
   14.9752    7.1959  -27.3303 H   0  0  0  0  0  0  0  0  0  0  0  0
   14.0821    8.5713  -26.7271 H   0  0  0  0  0  0  0  0  0  0  0  0
   12.5675    5.3978  -27.9548 H   0  0  0  0  0  0  0  0  0  0  0  0
   12.4590    4.6633  -26.3731 H   0  0  0  0  0  0  0  0  0  0  0  0
   14.0200    4.8966  -27.1228 H   0  0  0  0  0  0  0  0  0  0  0  0
   10.9455   11.0662  -27.9768 H   0  0  0  0  0  0  0  0  0  0  0  0
    9.5193   13.3188  -26.5913 H   0  0  0  0  0  0  0  0  0  0  0  0
    8.7562   11.9402  -27.3464 H   0  0  0  0  0  0  0  0  0  0  0  0
    9.6341   13.0950  -28.3204 H   0  0  0  0  0  0  0  0  0  0  0  0
   12.0625   13.4124  -26.4708 H   0  0  0  0  0  0  0  0  0  0  0  0
   12.1289   13.1863  -28.2021 H   0  0  0  0  0  0  0  0  0  0  0  0
   12.9932   12.0962  -27.1449 H   0  0  0  0  0  0  0  0  0  0  0  0
  1 22  1  0  0  0  0
  1 16  1  0  0  0  0
  2 17  1  0  0  0  0
  2 23  1  0  0  0  0
  3 24  1  0  0  0  0
  3 18  1  0  0  0  0
  4 19  2  0  0  0  0
  5 20  2  0  0  0  0
  6 21  2  0  0  0  0
  7 22  2  0  0  0  0
  8 23  2  0  0  0  0
  9 24  2  0  0  0  0
 10 25  1  0  0  0  0
 10 19  1  0  0  0  0
 10 13  1  0  0  0  0
 11 26  1  0  0  0  0
 11 14  1  0  0  0  0
 11 20  1  0  0  0  0
 12 27  1  0  0  0  0
 12 15  1  0  0  0  0
 12 21  1  0  0  0  0
 13 23  1  0  0  0  0
 13 34  1  0  0  0  0
 13 46  1  1  0  0  0
 14 31  1  0  0  0  0
 14 22  1  0  0  0  0
 14 47  1  1  0  0  0
 15 43  1  0  0  0  0
 15 24  1  0  0  0  0
 15 48  1  1  0  0  0
 16 28  1  0  0  0  0
 16 19  1  0  0  0  0
 16 49  1  6  0  0  0
 17 40  1  0  0  0  0
 17 21  1  0  0  0  0
 17 50  1  6  0  0  0
 18 20  1  0  0  0  0
 18 37  1  0  0  0  0
 18 51  1  6  0  0  0
 25 52  1  0  0  0  0
 25 53  1  0  0  0  0
 25 54  1  0  0  0  0
 26 55  1  0  0  0  0
 26 56  1  0  0  0  0
 26 57  1  0  0  0  0
 27 58  1  0  0  0  0
 27 59  1  0  0  0  0
 27 60  1  0  0  0  0
 28 30  1  0  0  0  0
 28 29  1  0  0  0  0
 28 61  1  0  0  0  0
 29 62  1  0  0  0  0
 29 63  1  0  0  0  0
 29 64  1  0  0  0  0
 30 65  1  0  0  0  0
 30 66  1  0  0  0  0
 30 67  1  0  0  0  0
 31 32  1  0  0  0  0
 31 33  1  0  0  0  0
 31 68  1  0  0  0  0
 32 69  1  0  0  0  0
 32 70  1  0  0  0  0
 32 71  1  0  0  0  0
 33 72  1  0  0  0  0
 33 73  1  0  0  0  0
 33 74  1  0  0  0  0
 34 36  1  0  0  0  0
 34 35  1  0  0  0  0
 34 75  1  0  0  0  0
 35 76  1  0  0  0  0
 35 77  1  0  0  0  0
 35 78  1  0  0  0  0
 36 79  1  0  0  0  0
 36 80  1  0  0  0  0
 36 81  1  0  0  0  0
 37 38  1  0  0  0  0
 37 39  1  0  0  0  0
 37 82  1  0  0  0  0
 38 83  1  0  0  0  0
 38 84  1  0  0  0  0
 38 85  1  0  0  0  0
 39 86  1  0  0  0  0
 39 87  1  0  0  0  0
 39 88  1  0  0  0  0
 40 41  1  0  0  0  0
 40 42  1  0  0  0  0
 40 89  1  0  0  0  0
 41 90  1  0  0  0  0
 41 91  1  0  0  0  0
 41 92  1  0  0  0  0
 42 93  1  0  0  0  0
 42 94  1  0  0  0  0
 42 95  1  0  0  0  0
 43 44  1  0  0  0  0
 43 45  1  0  0  0  0
 43 96  1  0  0  0  0
 44 97  1  0  0  0  0
 44 98  1  0  0  0  0
 44 99  1  0  0  0  0
 45100  1  0  0  0  0
 45101  1  0  0  0  0
 45102  1  0  0  0  0
M  END
