Results/Site1/HOLO/ENB1/ENB1-Site1_1.pdb
 OpenBabel08312517003D

105105  0  0  1  0  0  0  0  0999 V2000
   13.0760   -3.7570    3.7370 O   0  0  0  0  0  0  0  0  0  0  0  0
   12.3600    0.5140    0.8140 O   0  0  0  0  0  0  0  0  0  0  0  0
    9.7730   -3.3040   -0.2210 O   0  0  0  0  0  0  0  0  0  0  0  0
   14.7260   -1.3650    1.8510 O   0  0  0  0  0  0  0  0  0  0  0  0
   11.3250   -2.2660    3.9140 O   0  0  0  0  0  0  0  0  0  0  0  0
   13.1080   -3.7230    1.1450 O   0  0  0  0  0  0  0  0  0  0  0  0
    9.6730   -0.6370   -2.0610 O   0  0  0  0  0  0  0  0  0  0  0  0
   12.1260    2.7490    0.3350 O   0  0  0  0  0  0  0  0  0  0  0  0
   10.6800   -3.4110   -2.3340 O   0  0  0  0  0  0  0  0  0  0  0  0
   13.4120   -0.3830    3.4940 N   0  0  0  0  0  0  0  0  0  0  0  0
   11.3280   -5.1610    0.8010 N   0  0  0  0  0  0  0  0  0  0  0  0
    9.8280   -0.1170    0.2010 N   0  0  0  0  0  0  0  0  0  0  0  0
   13.6030   -1.5500    4.3800 C   0  0  2  0  0  0  0  0  0  0  0  0
   11.4380   -4.9760   -0.6620 C   0  0  2  0  0  0  0  0  0  0  0  0
   10.2540    1.2730   -0.0650 C   0  0  2  0  0  0  0  0  0  0  0  0
   13.7150    0.7210    1.2600 C   0  0  1  0  0  0  0  0  0  0  0  0
   12.2280   -4.7500    3.1190 C   0  0  1  0  0  0  0  0  0  0  0  0
    8.8100   -2.2840   -0.5420 C   0  0  1  0  0  0  0  0  0  0  0  0
   14.0020   -0.4320    2.2180 C   0  0  0  0  0  0  0  0  0  0  0  0
   12.5150   -2.5400    4.0010 C   0  0  0  0  0  0  0  0  0  0  0  0
   12.2610   -4.4940    1.6100 C   0  0  0  0  0  0  0  0  0  0  0  0
    9.4830   -0.9450   -0.8810 C   0  0  0  0  0  0  0  0  0  0  0  0
   11.6710    1.6100    0.3910 C   0  0  0  0  0  0  0  0  0  0  0  0
   10.6060   -3.8020   -1.1730 C   0  0  0  0  0  0  0  0  0  0  0  0
   12.5920    0.7270    3.9890 C   0  0  0  0  0  0  0  0  0  0  0  0
   10.2350   -5.9940    1.3070 C   0  0  0  0  0  0  0  0  0  0  0  0
    9.6120   -0.5040    1.5960 C   0  0  0  0  0  0  0  0  0  0  0  0
   12.8310   -6.1080    3.4470 C   0  0  0  0  0  0  0  0  0  0  0  0
   14.2090   -5.9470    4.0860 C   0  0  0  0  0  0  0  0  0  0  0  0
   11.9040   -6.9020    4.3670 C   0  0  0  0  0  0  0  0  0  0  0  0
   13.5580   -1.2650    5.8780 C   0  0  1  0  0  0  0  0  0  0  0  0
   13.5940   -2.5810    6.6580 C   0  0  0  0  0  0  0  0  0  0  0  0
   14.7110   -0.3230    6.2680 C   0  0  0  0  0  0  0  0  0  0  0  0
   14.3490    0.6650    7.3680 C   0  0  0  0  0  0  0  0  0  0  0  0
   11.1050   -6.2320   -1.4670 C   0  0  0  0  0  0  0  0  0  0  0  0
    9.8580   -6.0120   -2.3200 C   0  0  0  0  0  0  0  0  0  0  0  0
   12.2880   -6.6400   -2.3450 C   0  0  0  0  0  0  0  0  0  0  0  0
   14.6400    0.6890    0.0460 C   0  0  0  0  0  0  0  0  0  0  0  0
   15.0720    2.1030   -0.3400 C   0  0  0  0  0  0  0  0  0  0  0  0
   13.9570   -0.0010   -1.1340 C   0  0  0  0  0  0  0  0  0  0  0  0
    7.8330   -2.7440   -1.6230 C   0  0  0  0  0  0  0  0  0  0  0  0
    6.8010   -1.6570   -1.9120 C   0  0  0  0  0  0  0  0  0  0  0  0
    7.1440   -4.0410   -1.2070 C   0  0  0  0  0  0  0  0  0  0  0  0
    9.2540    2.2800    0.5050 C   0  0  0  0  0  0  0  0  0  0  0  0
    8.8550    3.2980   -0.5600 C   0  0  0  0  0  0  0  0  0  0  0  0
    9.8400    2.9800    1.7280 C   0  0  0  0  0  0  0  0  0  0  0  0
   14.5961   -1.9187    4.2292 H   0  0  0  0  0  0  0  0  0  0  0  0
   12.4731   -4.7560   -0.8203 H   0  0  0  0  0  0  0  0  0  0  0  0
   10.2711    1.3498   -1.1321 H   0  0  0  0  0  0  0  0  0  0  0  0
   13.8643    1.6616    1.7477 H   0  0  0  0  0  0  0  0  0  0  0  0
   11.2158   -4.7118    3.4639 H   0  0  0  0  0  0  0  0  0  0  0  0
    8.2262   -2.1113    0.3379 H   0  0  0  0  0  0  0  0  0  0  0  0
   12.5436    1.4942    3.2448 H   0  0  0  0  0  0  0  0  0  0  0  0
   13.0293    1.1231    4.8816 H   0  0  0  0  0  0  0  0  0  0  0  0
   11.6047    0.3738    4.2019 H   0  0  0  0  0  0  0  0  0  0  0  0
    9.6732   -6.3837    0.4840 H   0  0  0  0  0  0  0  0  0  0  0  0
    9.5946   -5.4034    1.9282 H   0  0  0  0  0  0  0  0  0  0  0  0
   10.6387   -6.8035    1.8785 H   0  0  0  0  0  0  0  0  0  0  0  0
    9.3091   -1.5293    1.6389 H   0  0  0  0  0  0  0  0  0  0  0  0
    8.8481    0.1118    2.0228 H   0  0  0  0  0  0  0  0  0  0  0  0
   10.5210   -0.3773    2.1461 H   0  0  0  0  0  0  0  0  0  0  0  0
   12.9454   -6.6516    2.5325 H   0  0  0  0  0  0  0  0  0  0  0  0
   14.1155   -5.4047    5.0036 H   0  0  0  0  0  0  0  0  0  0  0  0
   14.8511   -5.4110    3.4187 H   0  0  0  0  0  0  0  0  0  0  0  0
   14.6257   -6.9126    4.2833 H   0  0  0  0  0  0  0  0  0  0  0  0
   11.7774   -6.3730    5.2885 H   0  0  0  0  0  0  0  0  0  0  0  0
   12.3331   -7.8624    4.5631 H   0  0  0  0  0  0  0  0  0  0  0  0
   10.9526   -7.0264    3.8935 H   0  0  0  0  0  0  0  0  0  0  0  0
   12.6432   -0.7692    6.1275 H   0  0  0  0  0  0  0  0  0  0  0  0
   14.4989   -3.1051    6.4316 H   0  0  0  0  0  0  0  0  0  0  0  0
   12.7541   -3.1831    6.3806 H   0  0  0  0  0  0  0  0  0  0  0  0
   13.5541   -2.3749    7.7072 H   0  0  0  0  0  0  0  0  0  0  0  0
   15.0035    0.2302    5.4000 H   0  0  0  0  0  0  0  0  0  0  0  0
   15.5015   -0.9367    6.6468 H   0  0  0  0  0  0  0  0  0  0  0  0
   13.5582    1.3015    7.0297 H   0  0  0  0  0  0  0  0  0  0  0  0
   15.2056    1.2586    7.6104 H   0  0  0  0  0  0  0  0  0  0  0  0
   14.0287    0.1294    8.2372 H   0  0  0  0  0  0  0  0  0  0  0  0
   10.9062   -7.0261   -0.7780 H   0  0  0  0  0  0  0  0  0  0  0  0
   10.0376   -5.2200   -3.0167 H   0  0  0  0  0  0  0  0  0  0  0  0
    9.0350   -5.7512   -1.6879 H   0  0  0  0  0  0  0  0  0  0  0  0
    9.6275   -6.9106   -2.8532 H   0  0  0  0  0  0  0  0  0  0  0  0
   12.5019   -5.8566   -3.0418 H   0  0  0  0  0  0  0  0  0  0  0  0
   12.0444   -7.5350   -2.8783 H   0  0  0  0  0  0  0  0  0  0  0  0
   13.1458   -6.8139   -1.7294 H   0  0  0  0  0  0  0  0  0  0  0  0
   15.5132    0.1281    0.3063 H   0  0  0  0  0  0  0  0  0  0  0  0
   14.2102    2.6797   -0.6039 H   0  0  0  0  0  0  0  0  0  0  0  0
   15.7395    2.0566   -1.1750 H   0  0  0  0  0  0  0  0  0  0  0  0
   15.5688    2.5629    0.4886 H   0  0  0  0  0  0  0  0  0  0  0  0
   13.0800    0.5470   -1.4087 H   0  0  0  0  0  0  0  0  0  0  0  0
   13.6825   -0.9968   -0.8547 H   0  0  0  0  0  0  0  0  0  0  0  0
   14.6303   -0.0364   -1.9649 H   0  0  0  0  0  0  0  0  0  0  0  0
    8.3865   -2.9294   -2.5197 H   0  0  0  0  0  0  0  0  0  0  0  0
    6.2360   -1.4568   -1.0256 H   0  0  0  0  0  0  0  0  0  0  0  0
    6.1423   -1.9877   -2.6877 H   0  0  0  0  0  0  0  0  0  0  0  0
    7.3012   -0.7645   -2.2253 H   0  0  0  0  0  0  0  0  0  0  0  0
    6.5842   -3.8757   -0.3102 H   0  0  0  0  0  0  0  0  0  0  0  0
    7.8813   -4.7966   -1.0330 H   0  0  0  0  0  0  0  0  0  0  0  0
    6.4835   -4.3598   -1.9861 H   0  0  0  0  0  0  0  0  0  0  0  0
    8.3751    1.7512    0.8096 H   0  0  0  0  0  0  0  0  0  0  0  0
    9.7215    3.8388   -0.8789 H   0  0  0  0  0  0  0  0  0  0  0  0
    8.1393    3.9802   -0.1510 H   0  0  0  0  0  0  0  0  0  0  0  0
    8.4245    2.7887   -1.3968 H   0  0  0  0  0  0  0  0  0  0  0  0
   10.7216    3.5157    1.4440 H   0  0  0  0  0  0  0  0  0  0  0  0
   10.0892    2.2512    2.4708 H   0  0  0  0  0  0  0  0  0  0  0  0
    9.1200    3.6638    2.1267 H   0  0  0  0  0  0  0  0  0  0  0  0
  1 17  1  0  0  0  0
  1 20  1  0  0  0  0
  2 23  1  0  0  0  0
  2 16  1  0  0  0  0
  3 24  1  0  0  0  0
  3 18  1  0  0  0  0
  4 19  2  0  0  0  0
  5 20  2  0  0  0  0
  6 21  2  0  0  0  0
  7 22  2  0  0  0  0
  8 23  2  0  0  0  0
  9 24  2  0  0  0  0
 10 19  1  0  0  0  0
 10 25  1  0  0  0  0
 10 13  1  0  0  0  0
 11 14  1  0  0  0  0
 11 26  1  0  0  0  0
 11 21  1  0  0  0  0
 12 22  1  0  0  0  0
 12 15  1  0  0  0  0
 12 27  1  0  0  0  0
 13 20  1  0  0  0  0
 13 31  1  0  0  0  0
 13 47  1  6  0  0  0
 14 35  1  0  0  0  0
 14 24  1  0  0  0  0
 14 48  1  6  0  0  0
 15 23  1  0  0  0  0
 15 44  1  0  0  0  0
 15 49  1  6  0  0  0
 16 38  1  0  0  0  0
 16 19  1  0  0  0  0
 16 50  1  1  0  0  0
 17 21  1  0  0  0  0
 17 28  1  0  0  0  0
 17 51  1  1  0  0  0
 18 41  1  0  0  0  0
 18 22  1  0  0  0  0
 18 52  1  1  0  0  0
 25 53  1  0  0  0  0
 25 54  1  0  0  0  0
 25 55  1  0  0  0  0
 26 56  1  0  0  0  0
 26 57  1  0  0  0  0
 26 58  1  0  0  0  0
 27 59  1  0  0  0  0
 27 60  1  0  0  0  0
 27 61  1  0  0  0  0
 28 29  1  0  0  0  0
 28 30  1  0  0  0  0
 28 62  1  0  0  0  0
 29 63  1  0  0  0  0
 29 64  1  0  0  0  0
 29 65  1  0  0  0  0
 30 66  1  0  0  0  0
 30 67  1  0  0  0  0
 30 68  1  0  0  0  0
 31 33  1  0  0  0  0
 31 32  1  0  0  0  0
 31 69  1  1  0  0  0
 32 70  1  0  0  0  0
 32 71  1  0  0  0  0
 32 72  1  0  0  0  0
 33 34  1  0  0  0  0
 33 73  1  0  0  0  0
 33 74  1  0  0  0  0
 34 75  1  0  0  0  0
 34 76  1  0  0  0  0
 34 77  1  0  0  0  0
 35 37  1  0  0  0  0
 35 36  1  0  0  0  0
 35 78  1  0  0  0  0
 36 79  1  0  0  0  0
 36 80  1  0  0  0  0
 36 81  1  0  0  0  0
 37 82  1  0  0  0  0
 37 83  1  0  0  0  0
 37 84  1  0  0  0  0
 38 40  1  0  0  0  0
 38 39  1  0  0  0  0
 38 85  1  0  0  0  0
 39 86  1  0  0  0  0
 39 87  1  0  0  0  0
 39 88  1  0  0  0  0
 40 89  1  0  0  0  0
 40 90  1  0  0  0  0
 40 91  1  0  0  0  0
 41 42  1  0  0  0  0
 41 43  1  0  0  0  0
 41 92  1  0  0  0  0
 42 93  1  0  0  0  0
 42 94  1  0  0  0  0
 42 95  1  0  0  0  0
 43 96  1  0  0  0  0
 43 97  1  0  0  0  0
 43 98  1  0  0  0  0
 44 45  1  0  0  0  0
 44 46  1  0  0  0  0
 44 99  1  0  0  0  0
 45100  1  0  0  0  0
 45101  1  0  0  0  0
 45102  1  0  0  0  0
 46103  1  0  0  0  0
 46104  1  0  0  0  0
 46105  1  0  0  0  0
M  END
