@<TRIPOS>MOLECULE
Results/Site1/HOLO/ENB1/ENB1-Site1_1.pdb
 105 105 0 0 0
SMALL
GASTEIGER

@<TRIPOS>ATOM
      1  O         13.0760   -3.7570    3.7370 O.3     1  UNL1       -0.4503
      2  O         12.3600    0.5140    0.8140 O.3     1  UNL1       -0.4503
      3  O          9.7730   -3.3040   -0.2210 O.3     1  UNL1       -0.4503
      4  O         14.7260   -1.3650    1.8510 O.2     1  UNL1       -0.2715
      5  O         11.3250   -2.2660    3.9140 O.2     1  UNL1       -0.2487
      6  O         13.1080   -3.7230    1.1450 O.2     1  UNL1       -0.2715
      7  O          9.6730   -0.6370   -2.0610 O.2     1  UNL1       -0.2715
      8  O         12.1260    2.7490    0.3350 O.2     1  UNL1       -0.2487
      9  O         10.6800   -3.4110   -2.3340 O.2     1  UNL1       -0.2487
     10  N         13.4120   -0.3830    3.4940 N.am    1  UNL1       -0.2878
     11  N         11.3280   -5.1610    0.8010 N.am    1  UNL1       -0.2878
     12  N          9.8280   -0.1170    0.2010 N.am    1  UNL1       -0.2878
     13  C         13.6030   -1.5500    4.3800 C.3     1  UNL1        0.1253
     14  C         11.4380   -4.9760   -0.6620 C.3     1  UNL1        0.1250
     15  C         10.2540    1.2730   -0.0650 C.3     1  UNL1        0.1250
     16  C         13.7150    0.7210    1.2600 C.3     1  UNL1        0.1808
     17  C         12.2280   -4.7500    3.1190 C.3     1  UNL1        0.1808
     18  C          8.8100   -2.2840   -0.5420 C.3     1  UNL1        0.1808
     19  C         14.0020   -0.4320    2.2180 C.2     1  UNL1        0.2571
     20  C         12.5150   -2.5400    4.0010 C.2     1  UNL1        0.3288
     21  C         12.2610   -4.4940    1.6100 C.2     1  UNL1        0.2571
     22  C          9.4830   -0.9450   -0.8810 C.2     1  UNL1        0.2571
     23  C         11.6710    1.6100    0.3910 C.2     1  UNL1        0.3288
     24  C         10.6060   -3.8020   -1.1730 C.2     1  UNL1        0.3288
     25  C         12.5920    0.7270    3.9890 C.3     1  UNL1        0.0041
     26  C         10.2350   -5.9940    1.3070 C.3     1  UNL1        0.0041
     27  C          9.6120   -0.5040    1.5960 C.3     1  UNL1        0.0041
     28  C         12.8310   -6.1080    3.4470 C.3     1  UNL1       -0.0008
     29  C         14.2090   -5.9470    4.0860 C.3     1  UNL1       -0.0588
     30  C         11.9040   -6.9020    4.3670 C.3     1  UNL1       -0.0588
     31  C         13.5580   -1.2650    5.8780 C.3     1  UNL1       -0.0151
     32  C         13.5940   -2.5810    6.6580 C.3     1  UNL1       -0.0602
     33  C         14.7110   -0.3230    6.2680 C.3     1  UNL1       -0.0511
     34  C         14.3490    0.6650    7.3680 C.3     1  UNL1       -0.0650
     35  C         11.1050   -6.2320   -1.4670 C.3     1  UNL1       -0.0177
     36  C          9.8580   -6.0120   -2.3200 C.3     1  UNL1       -0.0605
     37  C         12.2880   -6.6400   -2.3450 C.3     1  UNL1       -0.0605
     38  C         14.6400    0.6890    0.0460 C.3     1  UNL1       -0.0008
     39  C         15.0720    2.1030   -0.3400 C.3     1  UNL1       -0.0588
     40  C         13.9570   -0.0010   -1.1340 C.3     1  UNL1       -0.0588
     41  C          7.8330   -2.7440   -1.6230 C.3     1  UNL1       -0.0008
     42  C          6.8010   -1.6570   -1.9120 C.3     1  UNL1       -0.0588
     43  C          7.1440   -4.0410   -1.2070 C.3     1  UNL1       -0.0588
     44  C          9.2540    2.2800    0.5050 C.3     1  UNL1       -0.0177
     45  C          8.8550    3.2980   -0.5600 C.3     1  UNL1       -0.0605
     46  C          9.8400    2.9800    1.7280 C.3     1  UNL1       -0.0605
     47 H          14.5961   -1.9187    4.2292 H       1  UNL1        0.0619
     48 H          12.4731   -4.7560   -0.8203 H       1  UNL1        0.0619
     49 H          10.2711    1.3498   -1.1321 H       1  UNL1        0.0619
     50 H          13.8643    1.6616    1.7477 H       1  UNL1        0.0835
     51 H          11.2158   -4.7118    3.4639 H       1  UNL1        0.0835
     52 H           8.2262   -2.1113    0.3379 H       1  UNL1        0.0835
     53 H          12.5436    1.4942    3.2448 H       1  UNL1        0.0429
     54 H          13.0293    1.1231    4.8816 H       1  UNL1        0.0429
     55 H          11.6047    0.3738    4.2019 H       1  UNL1        0.0429
     56 H           9.6732   -6.3837    0.4840 H       1  UNL1        0.0429
     57 H           9.5946   -5.4034    1.9282 H       1  UNL1        0.0429
     58 H          10.6387   -6.8035    1.8785 H       1  UNL1        0.0429
     59 H           9.3091   -1.5293    1.6389 H       1  UNL1        0.0429
     60 H           8.8481    0.1118    2.0228 H       1  UNL1        0.0429
     61 H          10.5210   -0.3773    2.1461 H       1  UNL1        0.0429
     62 H          12.9454   -6.6516    2.5325 H       1  UNL1        0.0336
     63 H          14.1155   -5.4047    5.0036 H       1  UNL1        0.0234
     64 H          14.8511   -5.4110    3.4187 H       1  UNL1        0.0234
     65 H          14.6257   -6.9126    4.2833 H       1  UNL1        0.0234
     66 H          11.7774   -6.3730    5.2885 H       1  UNL1        0.0234
     67 H          12.3331   -7.8624    4.5631 H       1  UNL1        0.0234
     68 H          10.9526   -7.0264    3.8935 H       1  UNL1        0.0234
     69 H          12.6432   -0.7692    6.1275 H       1  UNL1        0.0321
     70 H          14.4989   -3.1051    6.4316 H       1  UNL1        0.0233
     71 H          12.7541   -3.1831    6.3806 H       1  UNL1        0.0233
     72 H          13.5541   -2.3749    7.7072 H       1  UNL1        0.0233
     73 H          15.0035    0.2302    5.4000 H       1  UNL1        0.0266
     74 H          15.5015   -0.9367    6.6468 H       1  UNL1        0.0266
     75 H          13.5582    1.3015    7.0297 H       1  UNL1        0.0230
     76 H          15.2056    1.2586    7.6104 H       1  UNL1        0.0230
     77 H          14.0287    0.1294    8.2372 H       1  UNL1        0.0230
     78 H          10.9062   -7.0261   -0.7780 H       1  UNL1        0.0319
     79 H          10.0376   -5.2200   -3.0167 H       1  UNL1        0.0233
     80 H           9.0350   -5.7512   -1.6879 H       1  UNL1        0.0233
     81 H           9.6275   -6.9106   -2.8532 H       1  UNL1        0.0233
     82 H          12.5019   -5.8566   -3.0418 H       1  UNL1        0.0233
     83 H          12.0444   -7.5350   -2.8783 H       1  UNL1        0.0233
     84 H          13.1458   -6.8139   -1.7294 H       1  UNL1        0.0233
     85 H          15.5132    0.1281    0.3063 H       1  UNL1        0.0336
     86 H          14.2102    2.6797   -0.6039 H       1  UNL1        0.0234
     87 H          15.7395    2.0566   -1.1750 H       1  UNL1        0.0234
     88 H          15.5688    2.5629    0.4886 H       1  UNL1        0.0234
     89 H          13.0800    0.5470   -1.4087 H       1  UNL1        0.0234
     90 H          13.6825   -0.9968   -0.8547 H       1  UNL1        0.0234
     91 H          14.6303   -0.0364   -1.9649 H       1  UNL1        0.0234
     92 H           8.3865   -2.9294   -2.5197 H       1  UNL1        0.0336
     93 H           6.2360   -1.4568   -1.0256 H       1  UNL1        0.0234
     94 H           6.1423   -1.9877   -2.6877 H       1  UNL1        0.0234
     95 H           7.3012   -0.7645   -2.2253 H       1  UNL1        0.0234
     96 H           6.5842   -3.8757   -0.3102 H       1  UNL1        0.0234
     97 H           7.8813   -4.7966   -1.0330 H       1  UNL1        0.0234
     98 H           6.4835   -4.3598   -1.9861 H       1  UNL1        0.0234
     99 H           8.3751    1.7512    0.8096 H       1  UNL1        0.0319
    100 H           9.7215    3.8388   -0.8789 H       1  UNL1        0.0233
    101 H           8.1393    3.9802   -0.1510 H       1  UNL1        0.0233
    102 H           8.4245    2.7887   -1.3968 H       1  UNL1        0.0233
    103 H          10.7216    3.5157    1.4440 H       1  UNL1        0.0233
    104 H          10.0892    2.2512    2.4708 H       1  UNL1        0.0233
    105 H           9.1200    3.6638    2.1267 H       1  UNL1        0.0233
@<TRIPOS>BOND
     1     1    17    1
     2     1    20    1
     3     2    23    1
     4     2    16    1
     5     3    24    1
     6     3    18    1
     7     4    19    2
     8     5    20    2
     9     6    21    2
    10     7    22    2
    11     8    23    2
    12     9    24    2
    13    10    19   am
    14    10    25    1
    15    10    13    1
    16    11    14    1
    17    11    26    1
    18    11    21   am
    19    12    22   am
    20    12    15    1
    21    12    27    1
    22    13    20    1
    23    13    31    1
    24    14    35    1
    25    14    24    1
    26    15    23    1
    27    15    44    1
    28    16    38    1
    29    16    19    1
    30    17    21    1
    31    17    28    1
    32    18    41    1
    33    18    22    1
    34    28    29    1
    35    28    30    1
    36    31    33    1
    37    31    32    1
    38    33    34    1
    39    35    37    1
    40    35    36    1
    41    38    40    1
    42    38    39    1
    43    41    42    1
    44    41    43    1
    45    44    45    1
    46    44    46    1
    47    13    47    1
    48    14    48    1
    49    15    49    1
    50    16    50    1
    51    17    51    1
    52    18    52    1
    53    25    53    1
    54    25    54    1
    55    25    55    1
    56    26    56    1
    57    26    57    1
    58    26    58    1
    59    27    59    1
    60    27    60    1
    61    27    61    1
    62    28    62    1
    63    29    63    1
    64    29    64    1
    65    29    65    1
    66    30    66    1
    67    30    67    1
    68    30    68    1
    69    31    69    1
    70    32    70    1
    71    32    71    1
    72    32    72    1
    73    33    73    1
    74    33    74    1
    75    34    75    1
    76    34    76    1
    77    34    77    1
    78    35    78    1
    79    36    79    1
    80    36    80    1
    81    36    81    1
    82    37    82    1
    83    37    83    1
    84    37    84    1
    85    38    85    1
    86    39    86    1
    87    39    87    1
    88    39    88    1
    89    40    89    1
    90    40    90    1
    91    40    91    1
    92    41    92    1
    93    42    93    1
    94    42    94    1
    95    42    95    1
    96    43    96    1
    97    43    97    1
    98    43    98    1
    99    44    99    1
   100    45   100    1
   101    45   101    1
   102    45   102    1
   103    46   103    1
   104    46   104    1
   105    46   105    1
