@<TRIPOS>MOLECULE
Results/Site1/HOLO/ENA1/ENA1-Site1_1.pdb
 108 108 0 0 0
SMALL
GASTEIGER

@<TRIPOS>ATOM
      1  O          9.2750   -1.5400   -0.6380 O.3     1  UNL1       -0.4503
      2  O         12.2040   -5.3760   -0.2470 O.3     1  UNL1       -0.4503
      3  O         12.4550   -3.0100    3.0360 O.3     1  UNL1       -0.4503
      4  O          9.5260   -3.8670    0.5710 O.2     1  UNL1       -0.2715
      5  O         11.5240   -1.3090   -1.0990 O.2     1  UNL1       -0.2487
      6  O         10.3700   -1.5010    2.7260 O.2     1  UNL1       -0.2715
      7  O         12.1010   -7.6750   -0.2800 O.2     1  UNL1       -0.2487
      8  O         15.0750   -7.1400    0.4830 O.2     1  UNL1       -0.2715
      9  O         14.6830   -3.6000    3.1190 O.2     1  UNL1       -0.2487
     10  N          9.8080   -5.1310   -1.3530 N.am    1  UNL1       -0.2878
     11  N         11.5940   -0.0390    1.4030 N.am    1  UNL1       -0.2878
     12  N         13.9920   -6.1640    2.2860 N.am    1  UNL1       -0.2878
     13  C         10.0720   -6.3660   -0.5780 C.3     1  UNL1        0.1253
     14  C         10.4410    0.1680    0.5060 C.3     1  UNL1        0.1253
     15  C          9.1810   -2.6980   -1.4900 C.3     1  UNL1        0.1808
     16  C         12.9380   -5.2890    2.8400 C.3     1  UNL1        0.1250
     17  C         12.7420   -1.5960    2.9880 C.3     1  UNL1        0.1808
     18  C         13.6210   -5.3030   -0.0610 C.3     1  UNL1        0.1808
     19  C          9.5230   -3.9430   -0.6630 C.2     1  UNL1        0.2571
     20  C         10.5090   -0.9660   -0.5080 C.2     1  UNL1        0.3288
     21  C         11.4620   -1.0280    2.3890 C.2     1  UNL1        0.2571
     22  C         11.5750   -6.5750   -0.3950 C.2     1  UNL1        0.3288
     23  C         14.2830   -6.2980    0.9190 C.2     1  UNL1        0.2571
     24  C         13.5000   -3.8880    3.0180 C.2     1  UNL1        0.3288
     25  C          9.9390   -5.2340   -2.8110 C.3     1  UNL1        0.0041
     26  C         12.8420    0.6790    1.1330 C.3     1  UNL1        0.0041
     27  C         14.7880   -6.9470    3.2320 C.3     1  UNL1        0.0041
     28  C          7.7410   -2.7750   -1.9800 C.3     1  UNL1       -0.0008
     29  C          6.9510   -3.8060   -1.1770 C.3     1  UNL1       -0.0588
     30  C          7.0700   -1.4050   -1.8980 C.3     1  UNL1       -0.0588
     31  C         10.3750    1.5040   -0.2200 C.3     1  UNL1       -0.0151
     32  C          9.4130    1.4010   -1.4060 C.3     1  UNL1       -0.0602
     33  C          9.9400    2.6530    0.7070 C.3     1  UNL1       -0.0511
     34  C          8.7710    3.4640    0.1640 C.3     1  UNL1       -0.0650
     35  C          9.4020   -7.6070   -1.1670 C.3     1  UNL1       -0.0151
     36  C          7.8920   -7.3800   -1.2740 C.3     1  UNL1       -0.0602
     37  C          9.9700   -7.9820   -2.5470 C.3     1  UNL1       -0.0511
     38  C         10.5760   -9.3780   -2.5970 C.3     1  UNL1       -0.0650
     39  C         12.9650   -1.0570    4.3900 C.3     1  UNL1       -0.0008
     40  C         11.8270   -0.1230    4.7930 C.3     1  UNL1       -0.0588
     41  C         14.3090   -0.3370    4.4810 C.3     1  UNL1       -0.0588
     42  C         14.2710   -5.3650   -1.4440 C.3     1  UNL1       -0.0008
     43  C         13.2350   -5.7110   -2.5130 C.3     1  UNL1       -0.0588
     44  C         14.9610   -4.0440   -1.7760 C.3     1  UNL1       -0.0588
     45  C         12.3160   -5.7740    4.1490 C.3     1  UNL1       -0.0177
     46  C         10.7930   -5.8300    4.0350 C.3     1  UNL1       -0.0605
     47  C         12.7320   -4.8740    5.3110 C.3     1  UNL1       -0.0605
     48 H           9.6247   -6.2255    0.3838 H       1  UNL1        0.0619
     49 H           9.5576    0.1761    1.1097 H       1  UNL1        0.0619
     50 H           9.8546   -2.6377   -2.3192 H       1  UNL1        0.0835
     51 H          12.1370   -5.3035    2.1307 H       1  UNL1        0.0619
     52 H          13.6222   -1.3478    2.4324 H       1  UNL1        0.0835
     53 H          13.7936   -4.3755    0.4438 H       1  UNL1        0.0835
     54 H           9.7253   -4.2848   -3.2562 H       1  UNL1        0.0429
     55 H           9.2498   -5.9644   -3.1803 H       1  UNL1        0.0429
     56 H          10.9374   -5.5279   -3.0595 H       1  UNL1        0.0429
     57 H          12.6862    1.3789    0.3388 H       1  UNL1        0.0429
     58 H          13.6011   -0.0196    0.8490 H       1  UNL1        0.0429
     59 H          13.1503    1.2021    2.0140 H       1  UNL1        0.0429
     60 H          15.5074   -7.5300    2.6959 H       1  UNL1        0.0429
     61 H          14.1445   -7.5970    3.7872 H       1  UNL1        0.0429
     62 H          15.2941   -6.2864    3.9046 H       1  UNL1        0.0429
     63 H           7.7536   -3.0843   -3.0042 H       1  UNL1        0.0336
     64 H           6.9268   -3.5141   -0.1479 H       1  UNL1        0.0234
     65 H           7.4210   -4.7632   -1.2653 H       1  UNL1        0.0234
     66 H           5.9517   -3.8631   -1.5552 H       1  UNL1        0.0234
     67 H           7.0483   -1.0789   -0.8791 H       1  UNL1        0.0234
     68 H           6.0697   -1.4748   -2.2715 H       1  UNL1        0.0234
     69 H           7.6220   -0.7017   -2.4859 H       1  UNL1        0.0234
     70 H          11.3619    1.7298   -0.5662 H       1  UNL1        0.0321
     71 H           8.4299    1.1751   -1.0492 H       1  UNL1        0.0233
     72 H           9.7407    0.6240   -2.0646 H       1  UNL1        0.0233
     73 H           9.3959    2.3319   -1.9333 H       1  UNL1        0.0233
     74 H          10.7729    3.3104    0.8449 H       1  UNL1        0.0266
     75 H           9.6154    2.2100    1.6253 H       1  UNL1        0.0266
     76 H           9.0552    3.9258   -0.7584 H       1  UNL1        0.0230
     77 H           8.5010    4.2190    0.8725 H       1  UNL1        0.0230
     78 H           7.9354    2.8170   -0.0037 H       1  UNL1        0.0230
     79 H           9.6057   -8.4227   -0.5052 H       1  UNL1        0.0321
     80 H           7.7003   -6.5628   -1.9376 H       1  UNL1        0.0233
     81 H           7.4958   -7.1539   -0.3061 H       1  UNL1        0.0233
     82 H           7.4243   -8.2646   -1.6531 H       1  UNL1        0.0233
     83 H          10.7298   -7.2738   -2.8040 H       1  UNL1        0.0266
     84 H           9.1524   -7.9696   -3.2372 H       1  UNL1        0.0266
     85 H          11.4010   -9.4332   -1.9179 H       1  UNL1        0.0230
     86 H          10.9172   -9.5833   -3.5901 H       1  UNL1        0.0230
     87 H           9.8356  -10.0984   -2.3181 H       1  UNL1        0.0230
     88 H          12.9792   -1.8830    5.0701 H       1  UNL1        0.0336
     89 H          11.7961    0.7111    4.1235 H       1  UNL1        0.0234
     90 H          11.9891    0.2266    5.7912 H       1  UNL1        0.0234
     91 H          10.8981   -0.6520    4.7468 H       1  UNL1        0.0234
     92 H          14.3148    0.4940    3.8069 H       1  UNL1        0.0234
     93 H          15.0949   -1.0142    4.2191 H       1  UNL1        0.0234
     94 H          14.4588    0.0137    5.4808 H       1  UNL1        0.0234
     95 H          15.0113   -6.1375   -1.4297 H       1  UNL1        0.0336
     96 H          12.4848   -4.9486   -2.5426 H       1  UNL1        0.0234
     97 H          12.7798   -6.6504   -2.2778 H       1  UNL1        0.0234
     98 H          13.7151   -5.7762   -3.4670 H       1  UNL1        0.0234
     99 H          14.2356   -3.2576   -1.7950 H       1  UNL1        0.0234
    100 H          15.4316   -4.1184   -2.7341 H       1  UNL1        0.0234
    101 H          15.6993   -3.8303   -1.0316 H       1  UNL1        0.0234
    102 H          12.6765   -6.7626    4.3427 H       1  UNL1        0.0319
    103 H          10.4135   -4.8485    3.8410 H       1  UNL1        0.0233
    104 H          10.3800   -6.1974    4.9512 H       1  UNL1        0.0233
    105 H          10.5191   -6.4833    3.2330 H       1  UNL1        0.0233
    106 H          12.3799   -3.8790    5.1353 H       1  UNL1        0.0233
    107 H          13.7989   -4.8657    5.3915 H       1  UNL1        0.0233
    108 H          12.3086   -5.2468    6.2202 H       1  UNL1        0.0233
@<TRIPOS>BOND
     1     1    15    1
     2     1    20    1
     3     2    22    1
     4     2    18    1
     5     3    17    1
     6     3    24    1
     7     4    19    2
     8     5    20    2
     9     6    21    2
    10     7    22    2
    11     8    23    2
    12     9    24    2
    13    10    25    1
    14    10    19   am
    15    10    13    1
    16    11    14    1
    17    11    26    1
    18    11    21   am
    19    12    23   am
    20    12    16    1
    21    12    27    1
    22    13    35    1
    23    13    22    1
    24    14    20    1
    25    14    31    1
    26    15    28    1
    27    15    19    1
    28    16    24    1
    29    16    45    1
    30    17    21    1
    31    17    39    1
    32    18    42    1
    33    18    23    1
    34    28    30    1
    35    28    29    1
    36    31    32    1
    37    31    33    1
    38    33    34    1
    39    35    37    1
    40    35    36    1
    41    37    38    1
    42    39    41    1
    43    39    40    1
    44    42    43    1
    45    42    44    1
    46    45    46    1
    47    45    47    1
    48    13    48    1
    49    14    49    1
    50    15    50    1
    51    16    51    1
    52    17    52    1
    53    18    53    1
    54    25    54    1
    55    25    55    1
    56    25    56    1
    57    26    57    1
    58    26    58    1
    59    26    59    1
    60    27    60    1
    61    27    61    1
    62    27    62    1
    63    28    63    1
    64    29    64    1
    65    29    65    1
    66    29    66    1
    67    30    67    1
    68    30    68    1
    69    30    69    1
    70    31    70    1
    71    32    71    1
    72    32    72    1
    73    32    73    1
    74    33    74    1
    75    33    75    1
    76    34    76    1
    77    34    77    1
    78    34    78    1
    79    35    79    1
    80    36    80    1
    81    36    81    1
    82    36    82    1
    83    37    83    1
    84    37    84    1
    85    38    85    1
    86    38    86    1
    87    38    87    1
    88    39    88    1
    89    40    89    1
    90    40    90    1
    91    40    91    1
    92    41    92    1
    93    41    93    1
    94    41    94    1
    95    42    95    1
    96    43    96    1
    97    43    97    1
    98    43    98    1
    99    44    99    1
   100    44   100    1
   101    44   101    1
   102    45   102    1
   103    46   103    1
   104    46   104    1
   105    46   105    1
   106    47   106    1
   107    47   107    1
   108    47   108    1
