@<TRIPOS>MOLECULE
Results/Site1/APO/IBP/IBP-Site1_1.pdb
 33 33 0 0 0
SMALL
GASTEIGER

@<TRIPOS>ATOM
      1  C         32.7680   32.6390   36.5910 C.ar    1  UNL1       -0.0339
      2  C         33.8800   32.6470   35.7690 C.ar    1  UNL1       -0.0575
      3  C         35.1450   32.5790   36.3200 C.ar    1  UNL1       -0.0583
      4  C         35.2990   32.5030   37.6910 C.ar    1  UNL1       -0.0471
      5  C         34.1880   32.4900   38.5110 C.ar    1  UNL1       -0.0583
      6  C         32.9220   32.5630   37.9610 C.ar    1  UNL1       -0.0575
      7  C         31.3880   32.7150   35.9910 C.3     1  UNL1        0.0784
      8  C         30.3490   32.8090   37.1100 C.3     1  UNL1       -0.0482
      9  C         31.1290   31.4800   35.1680 C.2     1  UNL1        0.3119
     10  O         30.5870   31.5740   34.0920 O.2     1  UNL1       -0.2503
     11  O         31.4990   30.2750   35.6300 O.3     1  UNL1       -0.4802
     12  H         32.1270   29.7370   35.1280 H       1  UNL1        0.2951
     13  C         36.6800   32.4290   38.2910 C.3     1  UNL1       -0.0253
     14  C         37.7250   32.5780   37.1850 C.3     1  UNL1       -0.0427
     15  C         38.0580   34.0600   36.9950 C.3     1  UNL1       -0.0624
     16  C         38.9930   31.8170   37.5740 C.3     1  UNL1       -0.0624
     17 H          33.7650   32.7037   34.7450 H       1  UNL1        0.0621
     18 H          35.9754   32.5850   35.7073 H       1  UNL1        0.0620
     19 H          34.3029   32.4258   39.5346 H       1  UNL1        0.0620
     20 H          32.0920   32.5607   38.5743 H       1  UNL1        0.0621
     21 H          31.3186   33.5810   35.3664 H       1  UNL1        0.0459
     22 H          30.4183   31.9431   37.7347 H       1  UNL1        0.0241
     23 H          29.3693   32.8635   36.6834 H       1  UNL1        0.0241
     24 H          30.5328   33.6862   37.6946 H       1  UNL1        0.0241
     25 H          36.8075   31.4844   38.7772 H       1  UNL1        0.0316
     26 H          36.8014   33.2168   39.0048 H       1  UNL1        0.0316
     27 H          37.3363   32.1789   36.2715 H       1  UNL1        0.0299
     28 H          38.4466   34.4583   37.9089 H       1  UNL1        0.0232
     29 H          37.1710   34.5928   36.7224 H       1  UNL1        0.0232
     30 H          38.7891   34.1649   36.2208 H       1  UNL1        0.0232
     31 H          39.3822   32.2157   38.4875 H       1  UNL1        0.0232
     32 H          39.7236   31.9216   36.7993 H       1  UNL1        0.0232
     33 H          38.7605   30.7811   37.7074 H       1  UNL1        0.0232
@<TRIPOS>BOND
     1     1     2   ar
     2     1     7    1
     3     1     6   ar
     4     2     3   ar
     5     3     4   ar
     6     4    13    1
     7     4     5   ar
     8     5     6   ar
     9     7     9    1
    10     7     8    1
    11     9    10    2
    12     9    11    1
    13    11    12    1
    14    13    14    1
    15    14    15    1
    16    14    16    1
    17     2    17    1
    18     3    18    1
    19     5    19    1
    20     6    20    1
    21     7    21    1
    22     8    22    1
    23     8    23    1
    24     8    24    1
    25    13    25    1
    26    13    26    1
    27    14    27    1
    28    15    28    1
    29    15    29    1
    30    15    30    1
    31    16    31    1
    32    16    32    1
    33    16    33    1
