Results/Site1/APO/IBP/IBP-Site1_1.pdb
 OpenBabel08312517013D

 33 33  0  0  1  0  0  0  0  0999 V2000
   32.7680   32.6390   36.5910 C   0  0  0  0  0  0  0  0  0  0  0  0
   33.8800   32.6470   35.7690 C   0  0  0  0  0  0  0  0  0  0  0  0
   35.1450   32.5790   36.3200 C   0  0  0  0  0  0  0  0  0  0  0  0
   35.2990   32.5030   37.6910 C   0  0  0  0  0  0  0  0  0  0  0  0
   34.1880   32.4900   38.5110 C   0  0  0  0  0  0  0  0  0  0  0  0
   32.9220   32.5630   37.9610 C   0  0  0  0  0  0  0  0  0  0  0  0
   31.3880   32.7150   35.9910 C   0  0  2  0  0  0  0  0  0  0  0  0
   30.3490   32.8090   37.1100 C   0  0  0  0  0  0  0  0  0  0  0  0
   31.1290   31.4800   35.1680 C   0  0  0  0  0  0  0  0  0  0  0  0
   30.5870   31.5740   34.0920 O   0  0  0  0  0  0  0  0  0  0  0  0
   31.4990   30.2750   35.6300 O   0  0  0  0  0  0  0  0  0  0  0  0
   32.1270   29.7370   35.1280 H   0  0  0  0  0  0  0  0  0  0  0  0
   36.6800   32.4290   38.2910 C   0  0  0  0  0  0  0  0  0  0  0  0
   37.7250   32.5780   37.1850 C   0  0  0  0  0  0  0  0  0  0  0  0
   38.0580   34.0600   36.9950 C   0  0  0  0  0  0  0  0  0  0  0  0
   38.9930   31.8170   37.5740 C   0  0  0  0  0  0  0  0  0  0  0  0
   33.7650   32.7037   34.7450 H   0  0  0  0  0  0  0  0  0  0  0  0
   35.9754   32.5850   35.7073 H   0  0  0  0  0  0  0  0  0  0  0  0
   34.3029   32.4258   39.5346 H   0  0  0  0  0  0  0  0  0  0  0  0
   32.0920   32.5607   38.5743 H   0  0  0  0  0  0  0  0  0  0  0  0
   31.3186   33.5810   35.3664 H   0  0  0  0  0  0  0  0  0  0  0  0
   30.4183   31.9431   37.7347 H   0  0  0  0  0  0  0  0  0  0  0  0
   29.3693   32.8635   36.6834 H   0  0  0  0  0  0  0  0  0  0  0  0
   30.5328   33.6862   37.6946 H   0  0  0  0  0  0  0  0  0  0  0  0
   36.8075   31.4844   38.7772 H   0  0  0  0  0  0  0  0  0  0  0  0
   36.8014   33.2168   39.0048 H   0  0  0  0  0  0  0  0  0  0  0  0
   37.3363   32.1789   36.2715 H   0  0  0  0  0  0  0  0  0  0  0  0
   38.4466   34.4583   37.9089 H   0  0  0  0  0  0  0  0  0  0  0  0
   37.1710   34.5928   36.7224 H   0  0  0  0  0  0  0  0  0  0  0  0
   38.7891   34.1649   36.2208 H   0  0  0  0  0  0  0  0  0  0  0  0
   39.3822   32.2157   38.4875 H   0  0  0  0  0  0  0  0  0  0  0  0
   39.7236   31.9216   36.7993 H   0  0  0  0  0  0  0  0  0  0  0  0
   38.7605   30.7811   37.7074 H   0  0  0  0  0  0  0  0  0  0  0  0
  1  2  2  0  0  0  0
  1  7  1  0  0  0  0
  1  6  1  0  0  0  0
  2  3  1  0  0  0  0
  2 17  1  0  0  0  0
  3  4  2  0  0  0  0
  3 18  1  0  0  0  0
  4 13  1  0  0  0  0
  4  5  1  0  0  0  0
  5  6  2  0  0  0  0
  5 19  1  0  0  0  0
  6 20  1  0  0  0  0
  7  9  1  0  0  0  0
  7  8  1  0  0  0  0
  7 21  1  6  0  0  0
  8 22  1  0  0  0  0
  8 23  1  0  0  0  0
  8 24  1  0  0  0  0
  9 10  2  0  0  0  0
  9 11  1  0  0  0  0
 11 12  1  0  0  0  0
 13 14  1  0  0  0  0
 13 25  1  0  0  0  0
 13 26  1  0  0  0  0
 14 15  1  0  0  0  0
 14 16  1  0  0  0  0
 14 27  1  0  0  0  0
 15 28  1  0  0  0  0
 15 29  1  0  0  0  0
 15 30  1  0  0  0  0
 16 31  1  0  0  0  0
 16 32  1  0  0  0  0
 16 33  1  0  0  0  0
M  END
