Results/Site1/APO/ENA/ENA-Site1_1.pdb
 OpenBabel08312517013D

111111  0  0  1  0  0  0  0  0999 V2000
   29.1410   23.1270   29.0400 O   0  0  0  0  0  0  0  0  0  0  0  0
   26.6050   25.2080   32.9140 O   0  0  0  0  0  0  0  0  0  0  0  0
   27.8740   20.6300   31.9730 O   0  0  0  0  0  0  0  0  0  0  0  0
   28.8420   25.4350   30.1820 O   0  0  0  0  0  0  0  0  0  0  0  0
   28.3640   17.7700   30.1100 O   0  0  0  0  0  0  0  0  0  0  0  0
   28.6650   23.5660   32.9080 O   0  0  0  0  0  0  0  0  0  0  0  0
   28.7400   21.3880   27.5790 O   0  0  0  0  0  0  0  0  0  0  0  0
   25.3450   23.9530   31.4410 O   0  0  0  0  0  0  0  0  0  0  0  0
   29.0700   18.9090   32.9240 O   0  0  0  0  0  0  0  0  0  0  0  0
   26.6280   25.5150   29.4920 N   0  0  0  0  0  0  0  0  0  0  0  0
   29.6490   19.6070   29.5150 N   0  0  0  0  0  0  0  0  0  0  0  0
   27.7110   21.9460   34.2680 N   0  0  0  0  0  0  0  0  0  0  0  0
   26.2170   26.1280   30.7720 C   0  0  2  0  0  0  0  0  0  0  0  0
   29.9960   21.0370   29.6460 C   0  0  2  0  0  0  0  0  0  0  0  0
   28.8640   21.0330   34.0940 C   0  0  2  0  0  0  0  0  0  0  0  0
   28.2750   24.0380   28.3290 C   0  0  1  0  0  0  0  0  0  0  0  0
   26.5670   24.1570   33.8990 C   0  0  1  0  0  0  0  0  0  0  0  0
   27.4930   19.9030   30.8010 C   0  0  1  0  0  0  0  0  0  0  0  0
   27.9560   25.0760   29.3970 C   0  0  0  0  0  0  0  0  0  0  0  0
   28.5450   18.9940   30.1290 C   0  0  0  0  0  0  0  0  0  0  0  0
   27.7380   23.2020   33.6420 C   0  0  0  0  0  0  0  0  0  0  0  0
   29.2190   21.8350   28.6100 C   0  0  0  0  0  0  0  0  0  0  0  0
   25.9830   24.9600   31.7210 C   0  0  0  0  0  0  0  0  0  0  0  0
   28.5950   20.0370   32.9650 C   0  0  0  0  0  0  0  0  0  0  0  0
   25.6140   25.2730   28.4640 C   0  0  0  0  0  0  0  0  0  0  0  0
   30.5170   18.7720   28.6850 C   0  0  0  0  0  0  0  0  0  0  0  0
   26.5770   21.4270   35.0390 C   0  0  0  0  0  0  0  0  0  0  0  0
   29.0180   24.6720   27.1680 C   0  0  0  0  0  0  0  0  0  0  0  0
   30.3860   25.1830   27.6180 C   0  0  0  0  0  0  0  0  0  0  0  0
   28.1980   25.8070   26.5570 C   0  0  0  0  0  0  0  0  0  0  0  0
   31.4870   21.3530   29.5380 C   0  0  1  0  0  0  0  0  0  0  0  0
   31.8060   21.8730   28.1350 C   0  0  0  0  0  0  0  0  0  0  0  0
   31.9460   22.3760   30.5920 C   0  0  0  0  0  0  0  0  0  0  0  0
   31.6950   21.9290   32.0250 C   0  0  0  0  0  0  0  0  0  0  0  0
   24.9810   27.0170   30.7350 C   0  0  1  0  0  0  0  0  0  0  0  0
   24.5500   27.3640   32.1620 C   0  0  0  0  0  0  0  0  0  0  0  0
   25.2100   28.3090   29.9310 C   0  0  0  0  0  0  0  0  0  0  0  0
   26.4490   29.0830   30.3630 C   0  0  0  0  0  0  0  0  0  0  0  0
   26.2160   19.1290   31.1340 C   0  0  0  0  0  0  0  0  0  0  0  0
   25.3080   19.9560   32.0410 C   0  0  0  0  0  0  0  0  0  0  0  0
   25.4790   18.7340   29.8550 C   0  0  0  0  0  0  0  0  0  0  0  0
   26.7200   24.8180   35.2620 C   0  0  0  0  0  0  0  0  0  0  0  0
   25.3940   24.8040   36.0210 C   0  0  0  0  0  0  0  0  0  0  0  0
   27.2360   26.2490   35.1140 C   0  0  0  0  0  0  0  0  0  0  0  0
   29.2750   20.3210   35.3810 C   0  0  1  0  0  0  0  0  0  0  0  0
   30.5460   19.4980   35.1420 C   0  0  0  0  0  0  0  0  0  0  0  0
   29.5040   21.2990   36.5500 C   0  0  0  0  0  0  0  0  0  0  0  0
   30.5350   22.3750   36.2470 C   0  0  0  0  0  0  0  0  0  0  0  0
   26.9914   26.8021   31.0735 H   0  0  0  0  0  0  0  0  0  0  0  0
   29.7233   21.3173   30.6420 H   0  0  0  0  0  0  0  0  0  0  0  0
   29.6997   21.6439   33.8233 H   0  0  0  0  0  0  0  0  0  0  0  0
   27.4072   23.5760   27.9066 H   0  0  0  0  0  0  0  0  0  0  0  0
   25.6530   23.6025   33.8539 H   0  0  0  0  0  0  0  0  0  0  0  0
   27.3505   20.6433   30.0416 H   0  0  0  0  0  0  0  0  0  0  0  0
   26.0744   24.8280   27.6067 H   0  0  0  0  0  0  0  0  0  0  0  0
   25.1612   26.2012   28.1842 H   0  0  0  0  0  0  0  0  0  0  0  0
   24.8654   24.6130   28.8498 H   0  0  0  0  0  0  0  0  0  0  0  0
   31.3100   19.3689   28.2853 H   0  0  0  0  0  0  0  0  0  0  0  0
   29.9470   18.3524   27.8825 H   0  0  0  0  0  0  0  0  0  0  0  0
   30.9289   17.9839   29.2801 H   0  0  0  0  0  0  0  0  0  0  0  0
   25.8123   22.1733   35.0948 H   0  0  0  0  0  0  0  0  0  0  0  0
   26.9026   21.1753   36.0267 H   0  0  0  0  0  0  0  0  0  0  0  0
   26.1886   20.5536   34.5581 H   0  0  0  0  0  0  0  0  0  0  0  0
   29.1670   23.9229   26.4186 H   0  0  0  0  0  0  0  0  0  0  0  0
   30.2568   25.9343   28.3688 H   0  0  0  0  0  0  0  0  0  0  0  0
   30.9037   25.6013   26.7802 H   0  0  0  0  0  0  0  0  0  0  0  0
   30.9554   24.3712   28.0201 H   0  0  0  0  0  0  0  0  0  0  0  0
   28.0381   26.5675   27.2925 H   0  0  0  0  0  0  0  0  0  0  0  0
   27.2542   25.4269   26.2259 H   0  0  0  0  0  0  0  0  0  0  0  0
   28.7274   26.2215   25.7247 H   0  0  0  0  0  0  0  0  0  0  0  0
   32.0212   20.4443   29.7219 H   0  0  0  0  0  0  0  0  0  0  0  0
   31.2678   22.7811   27.9603 H   0  0  0  0  0  0  0  0  0  0  0  0
   31.5169   21.1418   27.4093 H   0  0  0  0  0  0  0  0  0  0  0  0
   32.8565   22.0598   28.0541 H   0  0  0  0  0  0  0  0  0  0  0  0
   31.4187   23.2922   30.4262 H   0  0  0  0  0  0  0  0  0  0  0  0
   33.0040   22.4891   30.4794 H   0  0  0  0  0  0  0  0  0  0  0  0
   30.6438   21.8035   32.1805 H   0  0  0  0  0  0  0  0  0  0  0  0
   32.0696   22.6695   32.7004 H   0  0  0  0  0  0  0  0  0  0  0  0
   32.1951   20.9997   32.2015 H   0  0  0  0  0  0  0  0  0  0  0  0
   24.2077   26.4672   30.2403 H   0  0  0  0  0  0  0  0  0  0  0  0
   25.3301   27.9131   32.6466 H   0  0  0  0  0  0  0  0  0  0  0  0
   24.3575   26.4627   32.7056 H   0  0  0  0  0  0  0  0  0  0  0  0
   23.6611   27.9588   32.1314 H   0  0  0  0  0  0  0  0  0  0  0  0
   24.3556   28.9410   30.0553 H   0  0  0  0  0  0  0  0  0  0  0  0
   25.3582   28.0223   28.9108 H   0  0  0  0  0  0  0  0  0  0  0  0
   26.3407   29.3894   31.3824 H   0  0  0  0  0  0  0  0  0  0  0  0
   26.5650   29.9462   29.7415 H   0  0  0  0  0  0  0  0  0  0  0  0
   27.3116   28.4570   30.2685 H   0  0  0  0  0  0  0  0  0  0  0  0
   26.4903   18.2358   31.6554 H   0  0  0  0  0  0  0  0  0  0  0  0
   25.0226   20.8551   31.5359 H   0  0  0  0  0  0  0  0  0  0  0  0
   25.8320   20.2032   32.9406 H   0  0  0  0  0  0  0  0  0  0  0  0
   24.4330   19.3893   32.2822 H   0  0  0  0  0  0  0  0  0  0  0  0
   25.1963   19.6161   29.3194 H   0  0  0  0  0  0  0  0  0  0  0  0
   24.6030   18.1735   30.1067 H   0  0  0  0  0  0  0  0  0  0  0  0
   26.1216   18.1359   29.2433 H   0  0  0  0  0  0  0  0  0  0  0  0
   27.4369   24.2577   35.8250 H   0  0  0  0  0  0  0  0  0  0  0  0
   24.6631   25.3605   35.4724 H   0  0  0  0  0  0  0  0  0  0  0  0
   25.5302   25.2476   36.9851 H   0  0  0  0  0  0  0  0  0  0  0  0
   25.0601   23.7941   36.1370 H   0  0  0  0  0  0  0  0  0  0  0  0
   26.5312   26.8260   34.5526 H   0  0  0  0  0  0  0  0  0  0  0  0
   28.1758   26.2382   34.6027 H   0  0  0  0  0  0  0  0  0  0  0  0
   27.3622   26.6846   36.0831 H   0  0  0  0  0  0  0  0  0  0  0  0
   28.4657   19.6770   35.6553 H   0  0  0  0  0  0  0  0  0  0  0  0
   31.3479   20.1515   34.8686 H   0  0  0  0  0  0  0  0  0  0  0  0
   30.3733   18.7960   34.3532 H   0  0  0  0  0  0  0  0  0  0  0  0
   30.8040   18.9721   36.0374 H   0  0  0  0  0  0  0  0  0  0  0  0
   29.8375   20.7398   37.3991 H   0  0  0  0  0  0  0  0  0  0  0  0
   28.5740   21.7961   36.7315 H   0  0  0  0  0  0  0  0  0  0  0  0
   31.4836   21.9171   36.0588 H   0  0  0  0  0  0  0  0  0  0  0  0
   30.6178   23.0357   37.0846 H   0  0  0  0  0  0  0  0  0  0  0  0
   30.2291   22.9293   35.3844 H   0  0  0  0  0  0  0  0  0  0  0  0
  1 16  1  0  0  0  0
  1 22  1  0  0  0  0
  2 23  1  0  0  0  0
  2 17  1  0  0  0  0
  3 18  1  0  0  0  0
  3 24  1  0  0  0  0
  4 19  2  0  0  0  0
  5 20  2  0  0  0  0
  6 21  2  0  0  0  0
  7 22  2  0  0  0  0
  8 23  2  0  0  0  0
  9 24  2  0  0  0  0
 10 25  1  0  0  0  0
 10 19  1  0  0  0  0
 10 13  1  0  0  0  0
 11 26  1  0  0  0  0
 11 14  1  0  0  0  0
 11 20  1  0  0  0  0
 12 21  1  0  0  0  0
 12 15  1  0  0  0  0
 12 27  1  0  0  0  0
 13 35  1  0  0  0  0
 13 23  1  0  0  0  0
 13 49  1  1  0  0  0
 14 22  1  0  0  0  0
 14 31  1  0  0  0  0
 14 50  1  1  0  0  0
 15 24  1  0  0  0  0
 15 45  1  0  0  0  0
 15 51  1  6  0  0  0
 16 28  1  0  0  0  0
 16 19  1  0  0  0  0
 16 52  1  6  0  0  0
 17 21  1  0  0  0  0
 17 42  1  0  0  0  0
 17 53  1  6  0  0  0
 18 20  1  0  0  0  0
 18 39  1  0  0  0  0
 18 54  1  6  0  0  0
 25 55  1  0  0  0  0
 25 56  1  0  0  0  0
 25 57  1  0  0  0  0
 26 58  1  0  0  0  0
 26 59  1  0  0  0  0
 26 60  1  0  0  0  0
 27 61  1  0  0  0  0
 27 62  1  0  0  0  0
 27 63  1  0  0  0  0
 28 30  1  0  0  0  0
 28 29  1  0  0  0  0
 28 64  1  0  0  0  0
 29 65  1  0  0  0  0
 29 66  1  0  0  0  0
 29 67  1  0  0  0  0
 30 68  1  0  0  0  0
 30 69  1  0  0  0  0
 30 70  1  0  0  0  0
 31 32  1  0  0  0  0
 31 33  1  0  0  0  0
 31 71  1  1  0  0  0
 32 72  1  0  0  0  0
 32 73  1  0  0  0  0
 32 74  1  0  0  0  0
 33 34  1  0  0  0  0
 33 75  1  0  0  0  0
 33 76  1  0  0  0  0
 34 77  1  0  0  0  0
 34 78  1  0  0  0  0
 34 79  1  0  0  0  0
 35 37  1  0  0  0  0
 35 36  1  0  0  0  0
 35 80  1  6  0  0  0
 36 81  1  0  0  0  0
 36 82  1  0  0  0  0
 36 83  1  0  0  0  0
 37 38  1  0  0  0  0
 37 84  1  0  0  0  0
 37 85  1  0  0  0  0
 38 86  1  0  0  0  0
 38 87  1  0  0  0  0
 38 88  1  0  0  0  0
 39 41  1  0  0  0  0
 39 40  1  0  0  0  0
 39 89  1  0  0  0  0
 40 90  1  0  0  0  0
 40 91  1  0  0  0  0
 40 92  1  0  0  0  0
 41 93  1  0  0  0  0
 41 94  1  0  0  0  0
 41 95  1  0  0  0  0
 42 44  1  0  0  0  0
 42 43  1  0  0  0  0
 42 96  1  0  0  0  0
 43 97  1  0  0  0  0
 43 98  1  0  0  0  0
 43 99  1  0  0  0  0
 44100  1  0  0  0  0
 44101  1  0  0  0  0
 44102  1  0  0  0  0
 45 46  1  0  0  0  0
 45 47  1  0  0  0  0
 45103  1  1  0  0  0
 46104  1  0  0  0  0
 46105  1  0  0  0  0
 46106  1  0  0  0  0
 47 48  1  0  0  0  0
 47107  1  0  0  0  0
 47108  1  0  0  0  0
 48109  1  0  0  0  0
 48110  1  0  0  0  0
 48111  1  0  0  0  0
M  END
