@<TRIPOS>MOLECULE
Results/Site1/APO/ENA/ENA-Site1_1.pdb
 111 111 0 0 0
SMALL
GASTEIGER

@<TRIPOS>ATOM
      1  O         29.1410   23.1270   29.0400 O.3     1  UNL1       -0.4503
      2  O         26.6050   25.2080   32.9140 O.3     1  UNL1       -0.4503
      3  O         27.8740   20.6300   31.9730 O.3     1  UNL1       -0.4503
      4  O         28.8420   25.4350   30.1820 O.2     1  UNL1       -0.2715
      5  O         28.3640   17.7700   30.1100 O.2     1  UNL1       -0.2715
      6  O         28.6650   23.5660   32.9080 O.2     1  UNL1       -0.2715
      7  O         28.7400   21.3880   27.5790 O.2     1  UNL1       -0.2487
      8  O         25.3450   23.9530   31.4410 O.2     1  UNL1       -0.2487
      9  O         29.0700   18.9090   32.9240 O.2     1  UNL1       -0.2487
     10  N         26.6280   25.5150   29.4920 N.am    1  UNL1       -0.2878
     11  N         29.6490   19.6070   29.5150 N.am    1  UNL1       -0.2878
     12  N         27.7110   21.9460   34.2680 N.am    1  UNL1       -0.2878
     13  C         26.2170   26.1280   30.7720 C.3     1  UNL1        0.1253
     14  C         29.9960   21.0370   29.6460 C.3     1  UNL1        0.1253
     15  C         28.8640   21.0330   34.0940 C.3     1  UNL1        0.1253
     16  C         28.2750   24.0380   28.3290 C.3     1  UNL1        0.1808
     17  C         26.5670   24.1570   33.8990 C.3     1  UNL1        0.1808
     18  C         27.4930   19.9030   30.8010 C.3     1  UNL1        0.1808
     19  C         27.9560   25.0760   29.3970 C.2     1  UNL1        0.2571
     20  C         28.5450   18.9940   30.1290 C.2     1  UNL1        0.2571
     21  C         27.7380   23.2020   33.6420 C.2     1  UNL1        0.2571
     22  C         29.2190   21.8350   28.6100 C.2     1  UNL1        0.3288
     23  C         25.9830   24.9600   31.7210 C.2     1  UNL1        0.3288
     24  C         28.5950   20.0370   32.9650 C.2     1  UNL1        0.3288
     25  C         25.6140   25.2730   28.4640 C.3     1  UNL1        0.0041
     26  C         30.5170   18.7720   28.6850 C.3     1  UNL1        0.0041
     27  C         26.5770   21.4270   35.0390 C.3     1  UNL1        0.0041
     28  C         29.0180   24.6720   27.1680 C.3     1  UNL1       -0.0008
     29  C         30.3860   25.1830   27.6180 C.3     1  UNL1       -0.0588
     30  C         28.1980   25.8070   26.5570 C.3     1  UNL1       -0.0588
     31  C         31.4870   21.3530   29.5380 C.3     1  UNL1       -0.0151
     32  C         31.8060   21.8730   28.1350 C.3     1  UNL1       -0.0602
     33  C         31.9460   22.3760   30.5920 C.3     1  UNL1       -0.0511
     34  C         31.6950   21.9290   32.0250 C.3     1  UNL1       -0.0650
     35  C         24.9810   27.0170   30.7350 C.3     1  UNL1       -0.0151
     36  C         24.5500   27.3640   32.1620 C.3     1  UNL1       -0.0602
     37  C         25.2100   28.3090   29.9310 C.3     1  UNL1       -0.0511
     38  C         26.4490   29.0830   30.3630 C.3     1  UNL1       -0.0650
     39  C         26.2160   19.1290   31.1340 C.3     1  UNL1       -0.0008
     40  C         25.3080   19.9560   32.0410 C.3     1  UNL1       -0.0588
     41  C         25.4790   18.7340   29.8550 C.3     1  UNL1       -0.0588
     42  C         26.7200   24.8180   35.2620 C.3     1  UNL1       -0.0008
     43  C         25.3940   24.8040   36.0210 C.3     1  UNL1       -0.0588
     44  C         27.2360   26.2490   35.1140 C.3     1  UNL1       -0.0588
     45  C         29.2750   20.3210   35.3810 C.3     1  UNL1       -0.0151
     46  C         30.5460   19.4980   35.1420 C.3     1  UNL1       -0.0602
     47  C         29.5040   21.2990   36.5500 C.3     1  UNL1       -0.0511
     48  C         30.5350   22.3750   36.2470 C.3     1  UNL1       -0.0650
     49 H          26.9914   26.8021   31.0735 H       1  UNL1        0.0619
     50 H          29.7233   21.3173   30.6420 H       1  UNL1        0.0619
     51 H          29.6997   21.6439   33.8233 H       1  UNL1        0.0619
     52 H          27.4072   23.5760   27.9066 H       1  UNL1        0.0835
     53 H          25.6530   23.6025   33.8539 H       1  UNL1        0.0835
     54 H          27.3505   20.6433   30.0416 H       1  UNL1        0.0835
     55 H          26.0744   24.8280   27.6067 H       1  UNL1        0.0429
     56 H          25.1612   26.2012   28.1842 H       1  UNL1        0.0429
     57 H          24.8654   24.6130   28.8498 H       1  UNL1        0.0429
     58 H          31.3100   19.3689   28.2853 H       1  UNL1        0.0429
     59 H          29.9470   18.3524   27.8825 H       1  UNL1        0.0429
     60 H          30.9289   17.9839   29.2801 H       1  UNL1        0.0429
     61 H          25.8123   22.1733   35.0948 H       1  UNL1        0.0429
     62 H          26.9026   21.1753   36.0267 H       1  UNL1        0.0429
     63 H          26.1886   20.5536   34.5581 H       1  UNL1        0.0429
     64 H          29.1670   23.9229   26.4186 H       1  UNL1        0.0336
     65 H          30.2568   25.9343   28.3688 H       1  UNL1        0.0234
     66 H          30.9037   25.6013   26.7802 H       1  UNL1        0.0234
     67 H          30.9554   24.3712   28.0201 H       1  UNL1        0.0234
     68 H          28.0381   26.5675   27.2925 H       1  UNL1        0.0234
     69 H          27.2542   25.4269   26.2259 H       1  UNL1        0.0234
     70 H          28.7274   26.2215   25.7247 H       1  UNL1        0.0234
     71 H          32.0212   20.4443   29.7219 H       1  UNL1        0.0321
     72 H          31.2678   22.7811   27.9603 H       1  UNL1        0.0233
     73 H          31.5169   21.1418   27.4093 H       1  UNL1        0.0233
     74 H          32.8565   22.0598   28.0541 H       1  UNL1        0.0233
     75 H          31.4187   23.2922   30.4262 H       1  UNL1        0.0266
     76 H          33.0040   22.4891   30.4794 H       1  UNL1        0.0266
     77 H          30.6438   21.8035   32.1805 H       1  UNL1        0.0230
     78 H          32.0696   22.6695   32.7004 H       1  UNL1        0.0230
     79 H          32.1951   20.9997   32.2015 H       1  UNL1        0.0230
     80 H          24.2077   26.4672   30.2403 H       1  UNL1        0.0321
     81 H          25.3301   27.9131   32.6466 H       1  UNL1        0.0233
     82 H          24.3575   26.4627   32.7056 H       1  UNL1        0.0233
     83 H          23.6611   27.9588   32.1314 H       1  UNL1        0.0233
     84 H          24.3556   28.9410   30.0553 H       1  UNL1        0.0266
     85 H          25.3582   28.0223   28.9108 H       1  UNL1        0.0266
     86 H          26.3407   29.3894   31.3824 H       1  UNL1        0.0230
     87 H          26.5650   29.9462   29.7415 H       1  UNL1        0.0230
     88 H          27.3116   28.4570   30.2685 H       1  UNL1        0.0230
     89 H          26.4903   18.2358   31.6554 H       1  UNL1        0.0336
     90 H          25.0226   20.8551   31.5359 H       1  UNL1        0.0234
     91 H          25.8320   20.2032   32.9406 H       1  UNL1        0.0234
     92 H          24.4330   19.3893   32.2822 H       1  UNL1        0.0234
     93 H          25.1963   19.6161   29.3194 H       1  UNL1        0.0234
     94 H          24.6030   18.1735   30.1067 H       1  UNL1        0.0234
     95 H          26.1216   18.1359   29.2433 H       1  UNL1        0.0234
     96 H          27.4369   24.2577   35.8250 H       1  UNL1        0.0336
     97 H          24.6631   25.3605   35.4724 H       1  UNL1        0.0234
     98 H          25.5302   25.2476   36.9851 H       1  UNL1        0.0234
     99 H          25.0601   23.7941   36.1370 H       1  UNL1        0.0234
    100 H          26.5312   26.8260   34.5526 H       1  UNL1        0.0234
    101 H          28.1758   26.2382   34.6027 H       1  UNL1        0.0234
    102 H          27.3622   26.6846   36.0831 H       1  UNL1        0.0234
    103 H          28.4657   19.6770   35.6553 H       1  UNL1        0.0321
    104 H          31.3479   20.1515   34.8686 H       1  UNL1        0.0233
    105 H          30.3733   18.7960   34.3532 H       1  UNL1        0.0233
    106 H          30.8040   18.9721   36.0374 H       1  UNL1        0.0233
    107 H          29.8375   20.7398   37.3991 H       1  UNL1        0.0266
    108 H          28.5740   21.7961   36.7315 H       1  UNL1        0.0266
    109 H          31.4836   21.9171   36.0588 H       1  UNL1        0.0230
    110 H          30.6178   23.0357   37.0846 H       1  UNL1        0.0230
    111 H          30.2291   22.9293   35.3844 H       1  UNL1        0.0230
@<TRIPOS>BOND
     1     1    16    1
     2     1    22    1
     3     2    23    1
     4     2    17    1
     5     3    18    1
     6     3    24    1
     7     4    19    2
     8     5    20    2
     9     6    21    2
    10     7    22    2
    11     8    23    2
    12     9    24    2
    13    10    25    1
    14    10    19   am
    15    10    13    1
    16    11    26    1
    17    11    14    1
    18    11    20   am
    19    12    21   am
    20    12    15    1
    21    12    27    1
    22    13    35    1
    23    13    23    1
    24    14    22    1
    25    14    31    1
    26    15    24    1
    27    15    45    1
    28    16    28    1
    29    16    19    1
    30    17    21    1
    31    17    42    1
    32    18    20    1
    33    18    39    1
    34    28    30    1
    35    28    29    1
    36    31    32    1
    37    31    33    1
    38    33    34    1
    39    35    37    1
    40    35    36    1
    41    37    38    1
    42    39    41    1
    43    39    40    1
    44    42    44    1
    45    42    43    1
    46    45    46    1
    47    45    47    1
    48    47    48    1
    49    13    49    1
    50    14    50    1
    51    15    51    1
    52    16    52    1
    53    17    53    1
    54    18    54    1
    55    25    55    1
    56    25    56    1
    57    25    57    1
    58    26    58    1
    59    26    59    1
    60    26    60    1
    61    27    61    1
    62    27    62    1
    63    27    63    1
    64    28    64    1
    65    29    65    1
    66    29    66    1
    67    29    67    1
    68    30    68    1
    69    30    69    1
    70    30    70    1
    71    31    71    1
    72    32    72    1
    73    32    73    1
    74    32    74    1
    75    33    75    1
    76    33    76    1
    77    34    77    1
    78    34    78    1
    79    34    79    1
    80    35    80    1
    81    36    81    1
    82    36    82    1
    83    36    83    1
    84    37    84    1
    85    37    85    1
    86    38    86    1
    87    38    87    1
    88    38    88    1
    89    39    89    1
    90    40    90    1
    91    40    91    1
    92    40    92    1
    93    41    93    1
    94    41    94    1
    95    41    95    1
    96    42    96    1
    97    43    97    1
    98    43    98    1
    99    43    99    1
   100    44   100    1
   101    44   101    1
   102    44   102    1
   103    45   103    1
   104    46   104    1
   105    46   105    1
   106    46   106    1
   107    47   107    1
   108    47   108    1
   109    48   109    1
   110    48   110    1
   111    48   111    1
