@<TRIPOS>MOLECULE
WAR-Site1_1h.pdb
   39    41     1     0     0
SMALL
bcc


@<TRIPOS>ATOM
      1 C            3.5940   -11.1780     9.8670 ca         1 UNL      -0.183800
      2 C1           5.5710   -11.1510     7.9480 c          1 UNL       0.733800
      3 C2           4.4010   -10.4180     7.7010 cc         1 UNL      -0.226400
      4 C3           3.3980   -10.4100     8.6290 cd         1 UNL       0.218900
      5 C4           2.6100   -11.2160    10.8560 ca         1 UNL      -0.085000
      6 C5           2.8260   -11.9460    12.0040 ca         1 UNL      -0.154000
      7 C6           4.0130   -12.6420    12.1790 ca         1 UNL      -0.080000
      8 C7           4.9930   -12.6130    11.2090 ca         1 UNL      -0.145000
      9 C8           4.7950   -11.8830    10.0440 ca         1 UNL       0.169100
     10 O            5.7430   -11.8460     9.0840 os         1 UNL      -0.324200
     11 O1           6.4590   -11.1490     7.1140 o          1 UNL      -0.555500
     12 O2           2.2560    -9.7150     8.4150 oh         1 UNL      -0.490100
     13 H            2.2390    -9.0000     9.0640 ho         1 UNL       0.431000
     14 C9           4.2490    -9.6460     6.4160 c3         1 UNL       0.046800
     15 C10          3.2930    -8.4720     6.6360 c3         1 UNL      -0.180400
     16 C11          4.0400    -7.1750     6.4580 c          1 UNL       0.563100
     17 C12          4.0860    -6.1720     7.5820 c3         1 UNL      -0.202100
     18 O3           4.6010    -6.9400     5.4160 o          1 UNL      -0.524100
     19 C13          3.6950   -10.5520     5.3490 ca         1 UNL      -0.081300
     20 C14          2.3300   -10.6140     5.1340 ca         1 UNL      -0.121000
     21 C15          1.8210   -11.4450     4.1540 ca         1 UNL      -0.133500
     22 C16          2.6750   -12.2140     3.3880 ca         1 UNL      -0.129000
     23 C17          4.0390   -12.1520     3.6020 ca         1 UNL      -0.133500
     24 C18          4.5490   -11.3170     4.5780 ca         1 UNL      -0.121000
     25 H1           1.7250   -10.7000    10.7280 ha         1 UNL       0.130000
     26 H2           2.1010   -11.9750    12.7380 ha         1 UNL       0.143000
     27 H3           4.1640   -13.1860    13.0430 ha         1 UNL       0.145000
     28 H4           5.8730   -13.1330    11.3490 ha         1 UNL       0.165000
     29 H5           5.2040    -9.2750     6.1080 hc         1 UNL       0.107700
     30 H6           2.8920    -8.5190     7.6270 hc         1 UNL       0.076700
     31 H7           2.4950    -8.5240     5.9250 hc         1 UNL       0.076700
     32 H8           3.5370    -6.5490     8.4200 hc         1 UNL       0.062367
     33 H9           3.6500    -5.2510     7.2560 hc         1 UNL       0.062367
     34 H10          5.1030    -6.0040     7.8680 hc         1 UNL       0.062367
     35 H11          1.6910   -10.0390     5.7060 ha         1 UNL       0.141500
     36 H12          0.8020   -11.4910     3.9950 ha         1 UNL       0.130500
     37 H13          2.2950   -12.8350     2.6560 ha         1 UNL       0.130000
     38 H14          4.6770   -12.7300     3.0330 ha         1 UNL       0.130500
     39 H15          5.5680   -11.2650     4.7310 ha         1 UNL       0.141500
@<TRIPOS>BOND
     1     1     4 1   
     2     1     9 ar  
     3     1     5 ar  
     4     2    11 2   
     5     2     3 1   
     6     2    10 1   
     7     3    14 1   
     8     3     4 2   
     9     4    12 1   
    10     5     6 ar  
    11     5    25 1   
    12     6     7 ar  
    13     6    26 1   
    14     7     8 ar  
    15     7    27 1   
    16     8     9 ar  
    17     8    28 1   
    18     9    10 1   
    19    12    13 1   
    20    14    19 1   
    21    14    15 1   
    22    14    29 1   
    23    15    16 1   
    24    15    30 1   
    25    15    31 1   
    26    16    18 2   
    27    16    17 1   
    28    17    32 1   
    29    17    33 1   
    30    17    34 1   
    31    19    24 ar  
    32    19    20 ar  
    33    20    21 ar  
    34    20    35 1   
    35    21    22 ar  
    36    21    36 1   
    37    22    23 ar  
    38    22    37 1   
    39    23    24 ar  
    40    23    38 1   
    41    24    39 1   
@<TRIPOS>SUBSTRUCTURE
     1 UNL         1 TEMP              0 ****  ****    0 ROOT
