@<TRIPOS>MOLECULE
Results/Site2/APO/IBP/IBP-Site2_1.pdb
 33 33 0 0 0
SMALL
GASTEIGER

@<TRIPOS>ATOM
      1  C         14.1050   25.2510   22.6990 C.ar    1  UNL1       -0.0339
      2  C         13.5200   25.5260   23.9210 C.ar    1  UNL1       -0.0575
      3  C         13.8270   24.7530   25.0240 C.ar    1  UNL1       -0.0583
      4  C         14.7190   23.7040   24.9050 C.ar    1  UNL1       -0.0471
      5  C         15.3080   23.4320   23.6860 C.ar    1  UNL1       -0.0583
      6  C         14.9960   24.2020   22.5810 C.ar    1  UNL1       -0.0575
      7  C         13.7690   26.0930   21.4960 C.3     1  UNL1        0.0784
      8  C         14.8860   25.9700   20.4590 C.3     1  UNL1       -0.0482
      9  C         13.6280   27.5330   21.9140 C.2     1  UNL1        0.3119
     10  O         14.6110   28.1840   22.1770 O.2     1  UNL1       -0.2503
     11  O         12.4110   28.0930   21.9950 O.3     1  UNL1       -0.4802
     12  H         12.3110   28.9820   22.3640 H       1  UNL1        0.2951
     13  C         15.0540   22.8600   26.1090 C.3     1  UNL1       -0.0253
     14  C         15.8800   21.6510   25.6700 C.3     1  UNL1       -0.0427
     15  C         16.5550   21.0240   26.8920 C.3     1  UNL1       -0.0624
     16  C         14.9650   20.6200   25.0080 C.3     1  UNL1       -0.0624
     17 H          12.8537   26.3091   24.0093 H       1  UNL1        0.0621
     18 H          13.3906   24.9587   25.9363 H       1  UNL1        0.0620
     19 H          15.9808   22.6542   23.5999 H       1  UNL1        0.0620
     20 H          15.4289   23.9931   21.6678 H       1  UNL1        0.0621
     21 H          12.8480   25.7538   21.0698 H       1  UNL1        0.0459
     22 H          15.8071   26.3092   20.8850 H       1  UNL1        0.0241
     23 H          14.6468   26.5679   19.6045 H       1  UNL1        0.0241
     24 H          14.9858   24.9469   20.1619 H       1  UNL1        0.0241
     25 H          14.1497   22.5248   26.5724 H       1  UNL1        0.0316
     26 H          15.6179   23.4426   26.8072 H       1  UNL1        0.0316
     27 H          16.6270   21.9647   24.9711 H       1  UNL1        0.0299
     28 H          15.8076   20.7105   27.5906 H       1  UNL1        0.0232
     29 H          17.1957   21.7452   27.3548 H       1  UNL1        0.0232
     30 H          17.1336   20.1779   26.5850 H       1  UNL1        0.0232
     31 H          14.2177   20.3058   25.7064 H       1  UNL1        0.0232
     32 H          15.5441   19.7744   24.7007 H       1  UNL1        0.0232
     33 H          14.4930   21.0585   24.1537 H       1  UNL1        0.0232
@<TRIPOS>BOND
     1     1     7    1
     2     1     6   ar
     3     1     2   ar
     4     2     3   ar
     5     3     4   ar
     6     4     5   ar
     7     4    13    1
     8     5     6   ar
     9     7     8    1
    10     7     9    1
    11     9    11    1
    12     9    10    2
    13    11    12    1
    14    13    14    1
    15    14    16    1
    16    14    15    1
    17     2    17    1
    18     3    18    1
    19     5    19    1
    20     6    20    1
    21     7    21    1
    22     8    22    1
    23     8    23    1
    24     8    24    1
    25    13    25    1
    26    13    26    1
    27    14    27    1
    28    15    28    1
    29    15    29    1
    30    15    30    1
    31    16    31    1
    32    16    32    1
    33    16    33    1
