Results/Site2/APO/IBP/IBP-Site2_1.pdb
 OpenBabel08312517013D

 33 33  0  0  1  0  0  0  0  0999 V2000
   14.1050   25.2510   22.6990 C   0  0  0  0  0  0  0  0  0  0  0  0
   13.5200   25.5260   23.9210 C   0  0  0  0  0  0  0  0  0  0  0  0
   13.8270   24.7530   25.0240 C   0  0  0  0  0  0  0  0  0  0  0  0
   14.7190   23.7040   24.9050 C   0  0  0  0  0  0  0  0  0  0  0  0
   15.3080   23.4320   23.6860 C   0  0  0  0  0  0  0  0  0  0  0  0
   14.9960   24.2020   22.5810 C   0  0  0  0  0  0  0  0  0  0  0  0
   13.7690   26.0930   21.4960 C   0  0  2  0  0  0  0  0  0  0  0  0
   14.8860   25.9700   20.4590 C   0  0  0  0  0  0  0  0  0  0  0  0
   13.6280   27.5330   21.9140 C   0  0  0  0  0  0  0  0  0  0  0  0
   14.6110   28.1840   22.1770 O   0  0  0  0  0  0  0  0  0  0  0  0
   12.4110   28.0930   21.9950 O   0  0  0  0  0  0  0  0  0  0  0  0
   12.3110   28.9820   22.3640 H   0  0  0  0  0  0  0  0  0  0  0  0
   15.0540   22.8600   26.1090 C   0  0  0  0  0  0  0  0  0  0  0  0
   15.8800   21.6510   25.6700 C   0  0  0  0  0  0  0  0  0  0  0  0
   16.5550   21.0240   26.8920 C   0  0  0  0  0  0  0  0  0  0  0  0
   14.9650   20.6200   25.0080 C   0  0  0  0  0  0  0  0  0  0  0  0
   12.8537   26.3091   24.0093 H   0  0  0  0  0  0  0  0  0  0  0  0
   13.3906   24.9587   25.9363 H   0  0  0  0  0  0  0  0  0  0  0  0
   15.9808   22.6542   23.5999 H   0  0  0  0  0  0  0  0  0  0  0  0
   15.4289   23.9931   21.6678 H   0  0  0  0  0  0  0  0  0  0  0  0
   12.8480   25.7538   21.0698 H   0  0  0  0  0  0  0  0  0  0  0  0
   15.8071   26.3092   20.8850 H   0  0  0  0  0  0  0  0  0  0  0  0
   14.6468   26.5679   19.6045 H   0  0  0  0  0  0  0  0  0  0  0  0
   14.9858   24.9469   20.1619 H   0  0  0  0  0  0  0  0  0  0  0  0
   14.1497   22.5248   26.5724 H   0  0  0  0  0  0  0  0  0  0  0  0
   15.6179   23.4426   26.8072 H   0  0  0  0  0  0  0  0  0  0  0  0
   16.6270   21.9647   24.9711 H   0  0  0  0  0  0  0  0  0  0  0  0
   15.8076   20.7105   27.5906 H   0  0  0  0  0  0  0  0  0  0  0  0
   17.1957   21.7452   27.3548 H   0  0  0  0  0  0  0  0  0  0  0  0
   17.1336   20.1779   26.5850 H   0  0  0  0  0  0  0  0  0  0  0  0
   14.2177   20.3058   25.7064 H   0  0  0  0  0  0  0  0  0  0  0  0
   15.5441   19.7744   24.7007 H   0  0  0  0  0  0  0  0  0  0  0  0
   14.4930   21.0585   24.1537 H   0  0  0  0  0  0  0  0  0  0  0  0
  1  7  1  0  0  0  0
  1  6  2  0  0  0  0
  1  2  1  0  0  0  0
  2  3  2  0  0  0  0
  2 17  1  0  0  0  0
  3  4  1  0  0  0  0
  3 18  1  0  0  0  0
  4  5  2  0  0  0  0
  4 13  1  0  0  0  0
  5  6  1  0  0  0  0
  5 19  1  0  0  0  0
  6 20  1  0  0  0  0
  7  8  1  0  0  0  0
  7  9  1  0  0  0  0
  7 21  1  6  0  0  0
  8 22  1  0  0  0  0
  8 23  1  0  0  0  0
  8 24  1  0  0  0  0
  9 11  1  0  0  0  0
  9 10  2  0  0  0  0
 11 12  1  0  0  0  0
 13 14  1  0  0  0  0
 13 25  1  0  0  0  0
 13 26  1  0  0  0  0
 14 16  1  0  0  0  0
 14 15  1  0  0  0  0
 14 27  1  0  0  0  0
 15 28  1  0  0  0  0
 15 29  1  0  0  0  0
 15 30  1  0  0  0  0
 16 31  1  0  0  0  0
 16 32  1  0  0  0  0
 16 33  1  0  0  0  0
M  END
