@<TRIPOS>MOLECULE
Results/Site1/APO/ENB1/ENB1-Site1_1.pdb
 105 105 0 0 0
SMALL
GASTEIGER

@<TRIPOS>ATOM
      1  O         26.8140   26.7680   30.4430 O.3     1  UNL1       -0.4503
      2  O         29.0030   22.0240   30.4790 O.3     1  UNL1       -0.4503
      3  O         26.0280   23.0870   33.9940 O.3     1  UNL1       -0.4503
      4  O         29.8430   25.0980   30.2550 O.2     1  UNL1       -0.2715
      5  O         25.8010   24.7990   29.7990 O.2     1  UNL1       -0.2487
      6  O         28.0190   25.7170   32.4830 O.2     1  UNL1       -0.2715
      7  O         27.6880   20.3030   33.9600 O.2     1  UNL1       -0.2715
      8  O         29.7910   20.0390   29.6330 O.2     1  UNL1       -0.2487
      9  O         27.6900   22.7980   35.5600 O.2     1  UNL1       -0.2487
     10  N         28.3570   24.3300   28.6460 N.am    1  UNL1       -0.2878
     11  N         26.2140   25.7090   33.9300 N.am    1  UNL1       -0.2878
     12  N         26.9750   20.9070   31.8300 N.am    1  UNL1       -0.2878
     13  C         27.7160   25.6590   28.5670 C.3     1  UNL1        0.1253
     14  C         27.0260   25.0400   34.9690 C.3     1  UNL1        0.1250
     15  C         27.9220   19.9880   31.1640 C.3     1  UNL1        0.1250
     16  C         29.9910   22.7670   29.7370 C.3     1  UNL1        0.1808
     17  C         26.0530   26.8120   31.6700 C.3     1  UNL1        0.1808
     18  C         25.7270   21.6860   33.8590 C.3     1  UNL1        0.1808
     19  C         29.4010   24.1650   29.5740 C.2     1  UNL1        0.2571
     20  C         26.6490   25.6690   29.6490 C.2     1  UNL1        0.3288
     21  C         26.8470   26.0310   32.7210 C.2     1  UNL1        0.2571
     22  C         26.8940   20.9070   33.2330 C.2     1  UNL1        0.2571
     23  C         29.0010   20.6710   30.3270 C.2     1  UNL1        0.3288
     24  C         26.9730   23.5170   34.8720 C.2     1  UNL1        0.3288
     25  C         27.8380   23.2660   27.7810 C.3     1  UNL1        0.0041
     26  C         24.8000   25.9550   34.2190 C.3     1  UNL1        0.0041
     27  C         26.0360   21.6430   30.9810 C.3     1  UNL1        0.0041
     28  C         25.9370   28.2770   32.0640 C.3     1  UNL1       -0.0008
     29  C         27.3070   28.8470   32.4320 C.3     1  UNL1       -0.0588
     30  C         25.3050   29.0910   30.9360 C.3     1  UNL1       -0.0588
     31  C         27.1020   26.0250   27.2200 C.3     1  UNL1       -0.0151
     32  C         26.2480   27.2860   27.3640 C.3     1  UNL1       -0.0602
     33  C         28.2110   26.1880   26.1650 C.3     1  UNL1       -0.0511
     34  C         27.7600   26.9270   24.9130 C.3     1  UNL1       -0.0650
     35  C         26.6840   25.4780   36.3940 C.3     1  UNL1       -0.0177
     36  C         25.7210   24.4880   37.0460 C.3     1  UNL1       -0.0605
     37  C         27.9530   25.6220   37.2340 C.3     1  UNL1       -0.0605
     38  C         31.2890   22.7920   30.5400 C.3     1  UNL1       -0.0008
     39  C         32.3670   21.9610   29.8460 C.3     1  UNL1       -0.0588
     40  C         31.0540   22.2840   31.9610 C.3     1  UNL1       -0.0588
     41  C         25.2510   21.0770   35.1770 C.3     1  UNL1       -0.0008
     42  C         25.1560   19.5580   35.0630 C.3     1  UNL1       -0.0588
     43  C         23.9050   21.6700   35.5870 C.3     1  UNL1       -0.0588
     44  C         27.1860   18.9360   30.3340 C.3     1  UNL1       -0.0177
     45  C         26.5310   19.5790   29.1150 C.3     1  UNL1       -0.0605
     46  C         26.1470   18.2140   31.1870 C.3     1  UNL1       -0.0605
     47 H          28.4769   26.3993   28.7006 H       1  UNL1        0.0619
     48 H          28.0262   25.3603   34.7640 H       1  UNL1        0.0619
     49 H          28.4430   19.5103   31.9673 H       1  UNL1        0.0619
     50 H          30.2175   22.3405   28.7822 H       1  UNL1        0.0835
     51 H          25.0761   26.3862   31.5734 H       1  UNL1        0.0835
     52 H          24.9084   21.6016   33.1752 H       1  UNL1        0.0835
     53 H          27.0485   23.6546   27.1722 H       1  UNL1        0.0429
     54 H          27.4622   22.4668   28.3850 H       1  UNL1        0.0429
     55 H          28.6245   22.9002   27.1545 H       1  UNL1        0.0429
     56 H          24.3443   26.4416   33.3821 H       1  UNL1        0.0429
     57 H          24.7161   26.5795   35.0838 H       1  UNL1        0.0429
     58 H          24.3062   25.0237   34.4024 H       1  UNL1        0.0429
     59 H          26.2935   21.4954   29.9530 H       1  UNL1        0.0429
     60 H          26.0858   22.6859   31.2149 H       1  UNL1        0.0429
     61 H          25.0426   21.2855   31.1547 H       1  UNL1        0.0429
     62 H          25.3025   28.3420   32.9231 H       1  UNL1        0.0336
     63 H          27.9565   28.7903   31.5836 H       1  UNL1        0.0234
     64 H          27.7238   28.2810   33.2387 H       1  UNL1        0.0234
     65 H          27.1995   29.8686   32.7313 H       1  UNL1        0.0234
     66 H          25.9263   29.0380   30.0665 H       1  UNL1        0.0234
     67 H          25.2081   30.1113   31.2434 H       1  UNL1        0.0234
     68 H          24.3379   28.6938   30.7081 H       1  UNL1        0.0234
     69 H          26.4580   25.2381   26.8870 H       1  UNL1        0.0321
     70 H          26.8621   28.0966   27.6969 H       1  UNL1        0.0233
     71 H          25.4708   27.1107   28.0782 H       1  UNL1        0.0233
     72 H          25.8138   27.5327   26.4177 H       1  UNL1        0.0233
     73 H          28.5508   25.2146   25.8788 H       1  UNL1        0.0266
     74 H          28.9853   26.7751   26.6131 H       1  UNL1        0.0266
     75 H          26.9824   26.3716   24.4316 H       1  UNL1        0.0230
     76 H          28.5883   27.0341   24.2442 H       1  UNL1        0.0230
     77 H          27.3923   27.8948   25.1831 H       1  UNL1        0.0230
     78 H          26.2033   26.4326   36.3432 H       1  UNL1        0.0319
     79 H          26.1850   23.5257   37.1057 H       1  UNL1        0.0233
     80 H          24.8294   24.4182   36.4586 H       1  UNL1        0.0233
     81 H          25.4739   24.8265   38.0305 H       1  UNL1        0.0233
     82 H          28.4487   24.6758   37.2965 H       1  UNL1        0.0233
     83 H          27.6939   25.9545   38.2175 H       1  UNL1        0.0233
     84 H          28.6047   26.3365   36.7760 H       1  UNL1        0.0233
     85 H          31.6279   23.8053   30.5966 H       1  UNL1        0.0336
     86 H          32.0451   20.9427   29.7802 H       1  UNL1        0.0234
     87 H          33.2750   22.0124   30.4097 H       1  UNL1        0.0234
     88 H          32.5358   22.3460   28.8620 H       1  UNL1        0.0234
     89 H          30.7140   21.2701   31.9256 H       1  UNL1        0.0234
     90 H          30.3145   22.8917   32.4393 H       1  UNL1        0.0234
     91 H          31.9689   22.3343   32.5136 H       1  UNL1        0.0234
     92 H          25.9679   21.3132   35.9354 H       1  UNL1        0.0336
     93 H          24.4426   19.3009   34.3081 H       1  UNL1        0.0234
     94 H          24.8454   19.1486   36.0015 H       1  UNL1        0.0234
     95 H          26.1134   19.1595   34.7994 H       1  UNL1        0.0234
     96 H          23.1732   21.4440   34.8398 H       1  UNL1        0.0234
     97 H          23.9980   22.7314   35.6857 H       1  UNL1        0.0234
     98 H          23.6005   21.2501   36.5229 H       1  UNL1        0.0234
     99 H          27.8983   18.2151   29.9907 H       1  UNL1        0.0319
    100 H          25.8136   20.3047   29.4368 H       1  UNL1        0.0233
    101 H          26.0405   18.8256   28.5347 H       1  UNL1        0.0233
    102 H          27.2796   20.0575   28.5187 H       1  UNL1        0.0233
    103 H          25.4239   18.9189   31.5409 H       1  UNL1        0.0233
    104 H          26.6305   17.7498   32.0211 H       1  UNL1        0.0233
    105 H          25.6580   17.4671   30.5972 H       1  UNL1        0.0233
@<TRIPOS>BOND
     1     1    20    1
     2     1    17    1
     3     2    16    1
     4     2    23    1
     5     3    18    1
     6     3    24    1
     7     4    19    2
     8     5    20    2
     9     6    21    2
    10     7    22    2
    11     8    23    2
    12     9    24    2
    13    10    25    1
    14    10    13    1
    15    10    19   am
    16    11    21   am
    17    11    26    1
    18    11    14    1
    19    12    27    1
    20    12    15    1
    21    12    22   am
    22    13    31    1
    23    13    20    1
    24    14    24    1
    25    14    35    1
    26    15    23    1
    27    15    44    1
    28    16    19    1
    29    16    38    1
    30    17    28    1
    31    17    21    1
    32    18    22    1
    33    18    41    1
    34    28    30    1
    35    28    29    1
    36    31    33    1
    37    31    32    1
    38    33    34    1
    39    35    36    1
    40    35    37    1
    41    38    39    1
    42    38    40    1
    43    41    42    1
    44    41    43    1
    45    44    45    1
    46    44    46    1
    47    13    47    1
    48    14    48    1
    49    15    49    1
    50    16    50    1
    51    17    51    1
    52    18    52    1
    53    25    53    1
    54    25    54    1
    55    25    55    1
    56    26    56    1
    57    26    57    1
    58    26    58    1
    59    27    59    1
    60    27    60    1
    61    27    61    1
    62    28    62    1
    63    29    63    1
    64    29    64    1
    65    29    65    1
    66    30    66    1
    67    30    67    1
    68    30    68    1
    69    31    69    1
    70    32    70    1
    71    32    71    1
    72    32    72    1
    73    33    73    1
    74    33    74    1
    75    34    75    1
    76    34    76    1
    77    34    77    1
    78    35    78    1
    79    36    79    1
    80    36    80    1
    81    36    81    1
    82    37    82    1
    83    37    83    1
    84    37    84    1
    85    38    85    1
    86    39    86    1
    87    39    87    1
    88    39    88    1
    89    40    89    1
    90    40    90    1
    91    40    91    1
    92    41    92    1
    93    42    93    1
    94    42    94    1
    95    42    95    1
    96    43    96    1
    97    43    97    1
    98    43    98    1
    99    44    99    1
   100    45   100    1
   101    45   101    1
   102    45   102    1
   103    46   103    1
   104    46   104    1
   105    46   105    1
