Results/Site1/APO/ENB1/ENB1-Site1_1.pdb
 OpenBabel08312517013D

105105  0  0  1  0  0  0  0  0999 V2000
   26.8140   26.7680   30.4430 O   0  0  0  0  0  0  0  0  0  0  0  0
   29.0030   22.0240   30.4790 O   0  0  0  0  0  0  0  0  0  0  0  0
   26.0280   23.0870   33.9940 O   0  0  0  0  0  0  0  0  0  0  0  0
   29.8430   25.0980   30.2550 O   0  0  0  0  0  0  0  0  0  0  0  0
   25.8010   24.7990   29.7990 O   0  0  0  0  0  0  0  0  0  0  0  0
   28.0190   25.7170   32.4830 O   0  0  0  0  0  0  0  0  0  0  0  0
   27.6880   20.3030   33.9600 O   0  0  0  0  0  0  0  0  0  0  0  0
   29.7910   20.0390   29.6330 O   0  0  0  0  0  0  0  0  0  0  0  0
   27.6900   22.7980   35.5600 O   0  0  0  0  0  0  0  0  0  0  0  0
   28.3570   24.3300   28.6460 N   0  0  0  0  0  0  0  0  0  0  0  0
   26.2140   25.7090   33.9300 N   0  0  0  0  0  0  0  0  0  0  0  0
   26.9750   20.9070   31.8300 N   0  0  0  0  0  0  0  0  0  0  0  0
   27.7160   25.6590   28.5670 C   0  0  2  0  0  0  0  0  0  0  0  0
   27.0260   25.0400   34.9690 C   0  0  2  0  0  0  0  0  0  0  0  0
   27.9220   19.9880   31.1640 C   0  0  2  0  0  0  0  0  0  0  0  0
   29.9910   22.7670   29.7370 C   0  0  1  0  0  0  0  0  0  0  0  0
   26.0530   26.8120   31.6700 C   0  0  1  0  0  0  0  0  0  0  0  0
   25.7270   21.6860   33.8590 C   0  0  1  0  0  0  0  0  0  0  0  0
   29.4010   24.1650   29.5740 C   0  0  0  0  0  0  0  0  0  0  0  0
   26.6490   25.6690   29.6490 C   0  0  0  0  0  0  0  0  0  0  0  0
   26.8470   26.0310   32.7210 C   0  0  0  0  0  0  0  0  0  0  0  0
   26.8940   20.9070   33.2330 C   0  0  0  0  0  0  0  0  0  0  0  0
   29.0010   20.6710   30.3270 C   0  0  0  0  0  0  0  0  0  0  0  0
   26.9730   23.5170   34.8720 C   0  0  0  0  0  0  0  0  0  0  0  0
   27.8380   23.2660   27.7810 C   0  0  0  0  0  0  0  0  0  0  0  0
   24.8000   25.9550   34.2190 C   0  0  0  0  0  0  0  0  0  0  0  0
   26.0360   21.6430   30.9810 C   0  0  0  0  0  0  0  0  0  0  0  0
   25.9370   28.2770   32.0640 C   0  0  0  0  0  0  0  0  0  0  0  0
   27.3070   28.8470   32.4320 C   0  0  0  0  0  0  0  0  0  0  0  0
   25.3050   29.0910   30.9360 C   0  0  0  0  0  0  0  0  0  0  0  0
   27.1020   26.0250   27.2200 C   0  0  1  0  0  0  0  0  0  0  0  0
   26.2480   27.2860   27.3640 C   0  0  0  0  0  0  0  0  0  0  0  0
   28.2110   26.1880   26.1650 C   0  0  0  0  0  0  0  0  0  0  0  0
   27.7600   26.9270   24.9130 C   0  0  0  0  0  0  0  0  0  0  0  0
   26.6840   25.4780   36.3940 C   0  0  0  0  0  0  0  0  0  0  0  0
   25.7210   24.4880   37.0460 C   0  0  0  0  0  0  0  0  0  0  0  0
   27.9530   25.6220   37.2340 C   0  0  0  0  0  0  0  0  0  0  0  0
   31.2890   22.7920   30.5400 C   0  0  0  0  0  0  0  0  0  0  0  0
   32.3670   21.9610   29.8460 C   0  0  0  0  0  0  0  0  0  0  0  0
   31.0540   22.2840   31.9610 C   0  0  0  0  0  0  0  0  0  0  0  0
   25.2510   21.0770   35.1770 C   0  0  0  0  0  0  0  0  0  0  0  0
   25.1560   19.5580   35.0630 C   0  0  0  0  0  0  0  0  0  0  0  0
   23.9050   21.6700   35.5870 C   0  0  0  0  0  0  0  0  0  0  0  0
   27.1860   18.9360   30.3340 C   0  0  0  0  0  0  0  0  0  0  0  0
   26.5310   19.5790   29.1150 C   0  0  0  0  0  0  0  0  0  0  0  0
   26.1470   18.2140   31.1870 C   0  0  0  0  0  0  0  0  0  0  0  0
   28.4769   26.3993   28.7006 H   0  0  0  0  0  0  0  0  0  0  0  0
   28.0262   25.3603   34.7640 H   0  0  0  0  0  0  0  0  0  0  0  0
   28.4430   19.5103   31.9673 H   0  0  0  0  0  0  0  0  0  0  0  0
   30.2175   22.3405   28.7822 H   0  0  0  0  0  0  0  0  0  0  0  0
   25.0761   26.3862   31.5734 H   0  0  0  0  0  0  0  0  0  0  0  0
   24.9084   21.6016   33.1752 H   0  0  0  0  0  0  0  0  0  0  0  0
   27.0485   23.6546   27.1722 H   0  0  0  0  0  0  0  0  0  0  0  0
   27.4622   22.4668   28.3850 H   0  0  0  0  0  0  0  0  0  0  0  0
   28.6245   22.9002   27.1545 H   0  0  0  0  0  0  0  0  0  0  0  0
   24.3443   26.4416   33.3821 H   0  0  0  0  0  0  0  0  0  0  0  0
   24.7161   26.5795   35.0838 H   0  0  0  0  0  0  0  0  0  0  0  0
   24.3062   25.0237   34.4024 H   0  0  0  0  0  0  0  0  0  0  0  0
   26.2935   21.4954   29.9530 H   0  0  0  0  0  0  0  0  0  0  0  0
   26.0858   22.6859   31.2149 H   0  0  0  0  0  0  0  0  0  0  0  0
   25.0426   21.2855   31.1547 H   0  0  0  0  0  0  0  0  0  0  0  0
   25.3025   28.3420   32.9231 H   0  0  0  0  0  0  0  0  0  0  0  0
   27.9565   28.7903   31.5836 H   0  0  0  0  0  0  0  0  0  0  0  0
   27.7238   28.2810   33.2387 H   0  0  0  0  0  0  0  0  0  0  0  0
   27.1995   29.8686   32.7313 H   0  0  0  0  0  0  0  0  0  0  0  0
   25.9263   29.0380   30.0665 H   0  0  0  0  0  0  0  0  0  0  0  0
   25.2081   30.1113   31.2434 H   0  0  0  0  0  0  0  0  0  0  0  0
   24.3379   28.6938   30.7081 H   0  0  0  0  0  0  0  0  0  0  0  0
   26.4580   25.2381   26.8870 H   0  0  0  0  0  0  0  0  0  0  0  0
   26.8621   28.0966   27.6969 H   0  0  0  0  0  0  0  0  0  0  0  0
   25.4708   27.1107   28.0782 H   0  0  0  0  0  0  0  0  0  0  0  0
   25.8138   27.5327   26.4177 H   0  0  0  0  0  0  0  0  0  0  0  0
   28.5508   25.2146   25.8788 H   0  0  0  0  0  0  0  0  0  0  0  0
   28.9853   26.7751   26.6131 H   0  0  0  0  0  0  0  0  0  0  0  0
   26.9824   26.3716   24.4316 H   0  0  0  0  0  0  0  0  0  0  0  0
   28.5883   27.0341   24.2442 H   0  0  0  0  0  0  0  0  0  0  0  0
   27.3923   27.8948   25.1831 H   0  0  0  0  0  0  0  0  0  0  0  0
   26.2033   26.4326   36.3432 H   0  0  0  0  0  0  0  0  0  0  0  0
   26.1850   23.5257   37.1057 H   0  0  0  0  0  0  0  0  0  0  0  0
   24.8294   24.4182   36.4586 H   0  0  0  0  0  0  0  0  0  0  0  0
   25.4739   24.8265   38.0305 H   0  0  0  0  0  0  0  0  0  0  0  0
   28.4487   24.6758   37.2965 H   0  0  0  0  0  0  0  0  0  0  0  0
   27.6939   25.9545   38.2175 H   0  0  0  0  0  0  0  0  0  0  0  0
   28.6047   26.3365   36.7760 H   0  0  0  0  0  0  0  0  0  0  0  0
   31.6279   23.8053   30.5966 H   0  0  0  0  0  0  0  0  0  0  0  0
   32.0451   20.9427   29.7802 H   0  0  0  0  0  0  0  0  0  0  0  0
   33.2750   22.0124   30.4097 H   0  0  0  0  0  0  0  0  0  0  0  0
   32.5358   22.3460   28.8620 H   0  0  0  0  0  0  0  0  0  0  0  0
   30.7140   21.2701   31.9256 H   0  0  0  0  0  0  0  0  0  0  0  0
   30.3145   22.8917   32.4393 H   0  0  0  0  0  0  0  0  0  0  0  0
   31.9689   22.3343   32.5136 H   0  0  0  0  0  0  0  0  0  0  0  0
   25.9679   21.3132   35.9354 H   0  0  0  0  0  0  0  0  0  0  0  0
   24.4426   19.3009   34.3081 H   0  0  0  0  0  0  0  0  0  0  0  0
   24.8454   19.1486   36.0015 H   0  0  0  0  0  0  0  0  0  0  0  0
   26.1134   19.1595   34.7994 H   0  0  0  0  0  0  0  0  0  0  0  0
   23.1732   21.4440   34.8398 H   0  0  0  0  0  0  0  0  0  0  0  0
   23.9980   22.7314   35.6857 H   0  0  0  0  0  0  0  0  0  0  0  0
   23.6005   21.2501   36.5229 H   0  0  0  0  0  0  0  0  0  0  0  0
   27.8983   18.2151   29.9907 H   0  0  0  0  0  0  0  0  0  0  0  0
   25.8136   20.3047   29.4368 H   0  0  0  0  0  0  0  0  0  0  0  0
   26.0405   18.8256   28.5347 H   0  0  0  0  0  0  0  0  0  0  0  0
   27.2796   20.0575   28.5187 H   0  0  0  0  0  0  0  0  0  0  0  0
   25.4239   18.9189   31.5409 H   0  0  0  0  0  0  0  0  0  0  0  0
   26.6305   17.7498   32.0211 H   0  0  0  0  0  0  0  0  0  0  0  0
   25.6580   17.4671   30.5972 H   0  0  0  0  0  0  0  0  0  0  0  0
  1 20  1  0  0  0  0
  1 17  1  0  0  0  0
  2 16  1  0  0  0  0
  2 23  1  0  0  0  0
  3 18  1  0  0  0  0
  3 24  1  0  0  0  0
  4 19  2  0  0  0  0
  5 20  2  0  0  0  0
  6 21  2  0  0  0  0
  7 22  2  0  0  0  0
  8 23  2  0  0  0  0
  9 24  2  0  0  0  0
 10 25  1  0  0  0  0
 10 13  1  0  0  0  0
 10 19  1  0  0  0  0
 11 21  1  0  0  0  0
 11 26  1  0  0  0  0
 11 14  1  0  0  0  0
 12 27  1  0  0  0  0
 12 15  1  0  0  0  0
 12 22  1  0  0  0  0
 13 31  1  0  0  0  0
 13 20  1  0  0  0  0
 13 47  1  1  0  0  0
 14 24  1  0  0  0  0
 14 35  1  0  0  0  0
 14 48  1  6  0  0  0
 15 23  1  0  0  0  0
 15 44  1  0  0  0  0
 15 49  1  1  0  0  0
 16 19  1  0  0  0  0
 16 38  1  0  0  0  0
 16 50  1  6  0  0  0
 17 28  1  0  0  0  0
 17 21  1  0  0  0  0
 17 51  1  6  0  0  0
 18 22  1  0  0  0  0
 18 41  1  0  0  0  0
 18 52  1  6  0  0  0
 25 53  1  0  0  0  0
 25 54  1  0  0  0  0
 25 55  1  0  0  0  0
 26 56  1  0  0  0  0
 26 57  1  0  0  0  0
 26 58  1  0  0  0  0
 27 59  1  0  0  0  0
 27 60  1  0  0  0  0
 27 61  1  0  0  0  0
 28 30  1  0  0  0  0
 28 29  1  0  0  0  0
 28 62  1  0  0  0  0
 29 63  1  0  0  0  0
 29 64  1  0  0  0  0
 29 65  1  0  0  0  0
 30 66  1  0  0  0  0
 30 67  1  0  0  0  0
 30 68  1  0  0  0  0
 31 33  1  0  0  0  0
 31 32  1  0  0  0  0
 31 69  1  6  0  0  0
 32 70  1  0  0  0  0
 32 71  1  0  0  0  0
 32 72  1  0  0  0  0
 33 34  1  0  0  0  0
 33 73  1  0  0  0  0
 33 74  1  0  0  0  0
 34 75  1  0  0  0  0
 34 76  1  0  0  0  0
 34 77  1  0  0  0  0
 35 36  1  0  0  0  0
 35 37  1  0  0  0  0
 35 78  1  0  0  0  0
 36 79  1  0  0  0  0
 36 80  1  0  0  0  0
 36 81  1  0  0  0  0
 37 82  1  0  0  0  0
 37 83  1  0  0  0  0
 37 84  1  0  0  0  0
 38 39  1  0  0  0  0
 38 40  1  0  0  0  0
 38 85  1  0  0  0  0
 39 86  1  0  0  0  0
 39 87  1  0  0  0  0
 39 88  1  0  0  0  0
 40 89  1  0  0  0  0
 40 90  1  0  0  0  0
 40 91  1  0  0  0  0
 41 42  1  0  0  0  0
 41 43  1  0  0  0  0
 41 92  1  0  0  0  0
 42 93  1  0  0  0  0
 42 94  1  0  0  0  0
 42 95  1  0  0  0  0
 43 96  1  0  0  0  0
 43 97  1  0  0  0  0
 43 98  1  0  0  0  0
 44 45  1  0  0  0  0
 44 46  1  0  0  0  0
 44 99  1  0  0  0  0
 45100  1  0  0  0  0
 45101  1  0  0  0  0
 45102  1  0  0  0  0
 46103  1  0  0  0  0
 46104  1  0  0  0  0
 46105  1  0  0  0  0
M  END
