@<TRIPOS>MOLECULE
IBP-Site1_1.pdb
 16 16 0 0 0
SMALL
GASTEIGER

@<TRIPOS>ATOM
      1  C         32.7680   32.6390   36.5910 C.ar    1  UNL1       -0.0120
      2  C         33.8800   32.6470   35.7690 C.ar    1  UNL1       -0.0041
      3  C         35.1450   32.5790   36.3200 C.ar    1  UNL1       -0.0046
      4  C         35.2990   32.5030   37.6910 C.ar    1  UNL1       -0.0222
      5  C         34.1880   32.4900   38.5110 C.ar    1  UNL1       -0.0046
      6  C         32.9220   32.5630   37.9610 C.ar    1  UNL1       -0.0041
      7  C         31.3880   32.7150   35.9910 C.3     1  UNL1        0.1211
      8  C         30.3490   32.8090   37.1100 C.3     1  UNL1        0.0164
      9  C         31.1290   31.4800   35.1680 C.2     1  UNL1        0.3174
     10  O         30.5870   31.5740   34.0920 O.2     1  UNL1       -0.2499
     11  O         31.4990   30.2750   35.6300 O.3     1  UNL1       -0.4800
     12  H         32.1270   29.7370   35.1280 H       1  UNL1        0.2951
     13  C         36.6800   32.4290   38.2910 C.3     1  UNL1        0.0263
     14  C         37.7250   32.5780   37.1850 C.3     1  UNL1        0.0044
     15  C         38.0580   34.0600   36.9950 C.3     1  UNL1        0.0003
     16  C         38.9930   31.8170   37.5740 C.3     1  UNL1        0.0003
@<TRIPOS>BOND
     1     1     2   ar
     2     1     7    1
     3     1     6   ar
     4     2     3   ar
     5     3     4   ar
     6     4    13    1
     7     4     5   ar
     8     5     6   ar
     9     7     9    1
    10     7     8    1
    11     9    10    2
    12     9    11    1
    13    11    12    1
    14    13    14    1
    15    14    15    1
    16    14    16    1
