@<TRIPOS>MOLECULE
SUC-Site1_1h.pdb
   45    46     1     0     0
SMALL
bcc


@<TRIPOS>ATOM
      1 O            4.4140    -7.7150     7.7050 os         1 UNL      -0.435600
      2 C            3.5380    -8.7680     7.2970 c5         1 UNL       0.267600
      3 O1           2.7030    -9.1660     8.4000 os         1 UNL      -0.419600
      4 C1           3.3140   -10.2950     9.0550 c5         1 UNL       0.063100
      5 C2           4.6440   -10.5510     8.3550 c5         1 UNL       0.083100
      6 C3           4.3560   -10.0130     6.9690 c5         1 UNL       0.144100
      7 C4           3.4720    -9.9970    10.5350 c3         1 UNL       0.115400
      8 O2           2.3530   -10.5220    11.2300 oh         1 UNL      -0.607800
      9 H            2.0640    -9.8500    11.8720 ho         1 UNL       0.426000
     10 O3           4.9470   -11.9330     8.3320 oh         1 UNL      -0.581800
     11 H1           5.2160   -12.1880     9.2300 ho         1 UNL       0.406000
     12 O4           5.5320    -9.7320     6.2380 oh         1 UNL      -0.571800
     13 H2           5.7720    -8.8060     6.4150 ho         1 UNL       0.420000
     14 C5           2.6800    -8.2980     6.1330 c3         1 UNL       0.130400
     15 O5           2.3820    -9.4120     5.3080 oh         1 UNL      -0.585800
     16 H3           1.8010    -9.0970     4.5950 ho         1 UNL       0.418000
     17 C6           4.1100    -6.4960     7.0310 c6         1 UNL       0.314900
     18 O6           3.9710    -5.4310     7.9680 os         1 UNL      -0.436600
     19 C7           3.6440    -4.1590     7.3930 c6         1 UNL       0.082100
     20 C8           4.6700    -3.7380     6.3260 c6         1 UNL       0.113100
     21 C9           5.0170    -4.8570     5.3350 c6         1 UNL       0.107100
     22 C10          5.2380    -6.1970     6.0420 c6         1 UNL       0.106100
     23 C11          2.1990    -4.1300     6.9010 c3         1 UNL       0.094400
     24 O7           2.0690    -3.0930     5.9470 oh         1 UNL      -0.588800
     25 H4           2.3280    -2.2610     6.3780 ho         1 UNL       0.400000
     26 O8           5.8800    -3.3590     6.9900 oh         1 UNL      -0.596800
     27 H5           5.6390    -3.0220     7.8690 ho         1 UNL       0.415000
     28 O9           3.9630    -5.0150     4.3890 oh         1 UNL      -0.599800
     29 H6           4.2610    -5.6570     3.7230 ho         1 UNL       0.414000
     30 O10          6.4880    -6.1690     6.7340 oh         1 UNL      -0.576800
     31 H7           6.6420    -5.2520     7.0160 ho         1 UNL       0.431000
     32 H8           2.7130   -11.1780     8.9880 h1         1 UNL       0.088700
     33 H9           5.4910   -10.0980     8.8270 h1         1 UNL       0.063700
     34 H10          3.8480   -10.7030     6.3280 h1         1 UNL       0.130700
     35 H11          3.5240    -8.9390    10.6850 h1         1 UNL       0.055700
     36 H12          4.3710   -10.4470    10.9020 h1         1 UNL       0.055700
     37 H13          3.2130    -7.5630     5.5670 h1         1 UNL       0.065200
     38 H14          1.7740    -7.8640     6.5010 h1         1 UNL       0.065200
     39 H15          3.1830    -6.5910     6.5050 h2         1 UNL       0.057700
     40 H16          3.7090    -3.4160     8.1610 h1         1 UNL       0.079700
     41 H17          4.2300    -2.9360     5.7700 h1         1 UNL       0.078700
     42 H18          5.9250    -4.5730     4.8450 h1         1 UNL       0.080700
     43 H19          5.2460    -6.9700     5.3020 h1         1 UNL       0.088700
     44 H20          1.5410    -3.9470     7.7250 h1         1 UNL       0.069700
     45 H21          1.9440    -5.0700     6.4570 h1         1 UNL       0.069700
@<TRIPOS>BOND
     1     1    17 1   
     2     1     2 1   
     3     2    14 1   
     4     2     6 1   
     5     2     3 1   
     6     3     4 1   
     7     4     5 1   
     8     4     7 1   
     9     4    32 1   
    10     5     6 1   
    11     5    10 1   
    12     5    33 1   
    13     6    12 1   
    14     6    34 1   
    15     7     8 1   
    16     7    35 1   
    17     7    36 1   
    18     8     9 1   
    19    10    11 1   
    20    12    13 1   
    21    14    15 1   
    22    14    37 1   
    23    14    38 1   
    24    15    16 1   
    25    17    22 1   
    26    17    18 1   
    27    17    39 1   
    28    18    19 1   
    29    19    20 1   
    30    19    23 1   
    31    19    40 1   
    32    20    21 1   
    33    20    26 1   
    34    20    41 1   
    35    21    28 1   
    36    21    22 1   
    37    21    42 1   
    38    22    30 1   
    39    22    43 1   
    40    23    24 1   
    41    23    44 1   
    42    23    45 1   
    43    24    25 1   
    44    26    27 1   
    45    28    29 1   
    46    30    31 1   
@<TRIPOS>SUBSTRUCTURE
     1 UNL         1 TEMP              0 ****  ****    0 ROOT
