@<TRIPOS>MOLECULE
SUC-Site1_1h.pdb
 45 46 0 0 0
SMALL
GASTEIGER

@<TRIPOS>ATOM
      1  O          4.4140   -7.7150    7.7050 O.3     1  UNL1       -0.3125
      2  C          3.5380   -8.7680    7.2970 C.3     1  UNL1        0.2252
      3  O          2.7030   -9.1660    8.4000 O.3     1  UNL1       -0.3362
      4  C          3.3140  -10.2950    9.0550 C.3     1  UNL1        0.1134
      5  C          4.6440  -10.5510    8.3550 C.3     1  UNL1        0.1145
      6  C          4.3560  -10.0130    6.9690 C.3     1  UNL1        0.1395
      7  C          3.4720   -9.9970   10.5350 C.3     1  UNL1        0.0730
      8  O          2.3530  -10.5220   11.2300 O.3     1  UNL1       -0.3924
      9  H          2.0640   -9.8500   11.8720 H       1  UNL1        0.2095
     10  O          4.9470  -11.9330    8.3320 O.3     1  UNL1       -0.3864
     11  H          5.2160  -12.1880    9.2300 H       1  UNL1        0.2100
     12  O          5.5320   -9.7320    6.2380 O.3     1  UNL1       -0.3837
     13  H          5.7720   -8.8060    6.4150 H       1  UNL1        0.2101
     14  C          2.6800   -8.2980    6.1330 C.3     1  UNL1        0.1009
     15  O          2.3820   -9.4120    5.3080 O.3     1  UNL1       -0.3896
     16  H          1.8010   -9.0970    4.5950 H       1  UNL1        0.2096
     17  C          4.1100   -6.4960    7.0310 C.3     1  UNL1        0.1912
     18  O          3.9710   -5.4310    7.9680 O.3     1  UNL1       -0.3404
     19  C          3.6440   -4.1590    7.3930 C.3     1  UNL1        0.1130
     20  C          4.6700   -3.7380    6.3260 C.3     1  UNL1        0.1119
     21  C          5.0170   -4.8570    5.3350 C.3     1  UNL1        0.1141
     22  C          5.2380   -6.1970    6.0420 C.3     1  UNL1        0.1342
     23  C          2.1990   -4.1300    6.9010 C.3     1  UNL1        0.0730
     24  O          2.0690   -3.0930    5.9470 O.3     1  UNL1       -0.3924
     25  H          2.3280   -2.2610    6.3780 H       1  UNL1        0.2095
     26  O          5.8800   -3.3590    6.9900 O.3     1  UNL1       -0.3865
     27  H          5.6390   -3.0220    7.8690 H       1  UNL1        0.2100
     28  O          3.9630   -5.0150    4.3890 O.3     1  UNL1       -0.3864
     29  H          4.2610   -5.6570    3.7230 H       1  UNL1        0.2100
     30  O          6.4880   -6.1690    6.7340 O.3     1  UNL1       -0.3841
     31  H          6.6420   -5.2520    7.0160 H       1  UNL1        0.2101
     32  H          2.7130  -11.1780    8.9880 H       1  UNL1        0.0647
     33  H          5.4910  -10.0980    8.8270 H       1  UNL1        0.0648
     34  H          3.8480  -10.7030    6.3280 H       1  UNL1        0.0675
     35  H          3.5240   -8.9390   10.6850 H       1  UNL1        0.0584
     36  H          4.3710  -10.4470   10.9020 H       1  UNL1        0.0584
     37  H          3.2130   -7.5630    5.5670 H       1  UNL1        0.0612
     38  H          1.7740   -7.8640    6.5010 H       1  UNL1        0.0612
     39  H          3.1830   -6.5910    6.5050 H       1  UNL1        0.0939
     40  H          3.7090   -3.4160    8.1610 H       1  UNL1        0.0647
     41  H          4.2300   -2.9360    5.7700 H       1  UNL1        0.0647
     42  H          5.9250   -4.5730    4.8450 H       1  UNL1        0.0648
     43  H          5.2460   -6.9700    5.3020 H       1  UNL1        0.0671
     44  H          1.5410   -3.9470    7.7250 H       1  UNL1        0.0584
     45  H          1.9440   -5.0700    6.4570 H       1  UNL1        0.0584
@<TRIPOS>BOND
     1     1    17    1
     2     1     2    1
     3     2    14    1
     4     2     6    1
     5     2     3    1
     6     3     4    1
     7     4     5    1
     8     4     7    1
     9     4    32    1
    10     5     6    1
    11     5    10    1
    12     5    33    1
    13     6    12    1
    14     6    34    1
    15     7     8    1
    16     7    35    1
    17     7    36    1
    18     8     9    1
    19    10    11    1
    20    12    13    1
    21    14    15    1
    22    14    37    1
    23    14    38    1
    24    15    16    1
    25    17    22    1
    26    17    18    1
    27    17    39    1
    28    18    19    1
    29    19    20    1
    30    19    23    1
    31    19    40    1
    32    20    21    1
    33    20    26    1
    34    20    41    1
    35    21    28    1
    36    21    22    1
    37    21    42    1
    38    22    30    1
    39    22    43    1
    40    23    24    1
    41    23    44    1
    42    23    45    1
    43    24    25    1
    44    26    27    1
    45    28    29    1
    46    30    31    1
