Results/Site1/HOLO/ENA1/ENA1-Site1_1.pdb
 OpenBabel08312517003D

108108  0  0  1  0  0  0  0  0999 V2000
    9.2750   -1.5400   -0.6380 O   0  0  0  0  0  0  0  0  0  0  0  0
   12.2040   -5.3760   -0.2470 O   0  0  0  0  0  0  0  0  0  0  0  0
   12.4550   -3.0100    3.0360 O   0  0  0  0  0  0  0  0  0  0  0  0
    9.5260   -3.8670    0.5710 O   0  0  0  0  0  0  0  0  0  0  0  0
   11.5240   -1.3090   -1.0990 O   0  0  0  0  0  0  0  0  0  0  0  0
   10.3700   -1.5010    2.7260 O   0  0  0  0  0  0  0  0  0  0  0  0
   12.1010   -7.6750   -0.2800 O   0  0  0  0  0  0  0  0  0  0  0  0
   15.0750   -7.1400    0.4830 O   0  0  0  0  0  0  0  0  0  0  0  0
   14.6830   -3.6000    3.1190 O   0  0  0  0  0  0  0  0  0  0  0  0
    9.8080   -5.1310   -1.3530 N   0  0  0  0  0  0  0  0  0  0  0  0
   11.5940   -0.0390    1.4030 N   0  0  0  0  0  0  0  0  0  0  0  0
   13.9920   -6.1640    2.2860 N   0  0  0  0  0  0  0  0  0  0  0  0
   10.0720   -6.3660   -0.5780 C   0  0  2  0  0  0  0  0  0  0  0  0
   10.4410    0.1680    0.5060 C   0  0  2  0  0  0  0  0  0  0  0  0
    9.1810   -2.6980   -1.4900 C   0  0  1  0  0  0  0  0  0  0  0  0
   12.9380   -5.2890    2.8400 C   0  0  2  0  0  0  0  0  0  0  0  0
   12.7420   -1.5960    2.9880 C   0  0  1  0  0  0  0  0  0  0  0  0
   13.6210   -5.3030   -0.0610 C   0  0  1  0  0  0  0  0  0  0  0  0
    9.5230   -3.9430   -0.6630 C   0  0  0  0  0  0  0  0  0  0  0  0
   10.5090   -0.9660   -0.5080 C   0  0  0  0  0  0  0  0  0  0  0  0
   11.4620   -1.0280    2.3890 C   0  0  0  0  0  0  0  0  0  0  0  0
   11.5750   -6.5750   -0.3950 C   0  0  0  0  0  0  0  0  0  0  0  0
   14.2830   -6.2980    0.9190 C   0  0  0  0  0  0  0  0  0  0  0  0
   13.5000   -3.8880    3.0180 C   0  0  0  0  0  0  0  0  0  0  0  0
    9.9390   -5.2340   -2.8110 C   0  0  0  0  0  0  0  0  0  0  0  0
   12.8420    0.6790    1.1330 C   0  0  0  0  0  0  0  0  0  0  0  0
   14.7880   -6.9470    3.2320 C   0  0  0  0  0  0  0  0  0  0  0  0
    7.7410   -2.7750   -1.9800 C   0  0  0  0  0  0  0  0  0  0  0  0
    6.9510   -3.8060   -1.1770 C   0  0  0  0  0  0  0  0  0  0  0  0
    7.0700   -1.4050   -1.8980 C   0  0  0  0  0  0  0  0  0  0  0  0
   10.3750    1.5040   -0.2200 C   0  0  1  0  0  0  0  0  0  0  0  0
    9.4130    1.4010   -1.4060 C   0  0  0  0  0  0  0  0  0  0  0  0
    9.9400    2.6530    0.7070 C   0  0  0  0  0  0  0  0  0  0  0  0
    8.7710    3.4640    0.1640 C   0  0  0  0  0  0  0  0  0  0  0  0
    9.4020   -7.6070   -1.1670 C   0  0  1  0  0  0  0  0  0  0  0  0
    7.8920   -7.3800   -1.2740 C   0  0  0  0  0  0  0  0  0  0  0  0
    9.9700   -7.9820   -2.5470 C   0  0  0  0  0  0  0  0  0  0  0  0
   10.5760   -9.3780   -2.5970 C   0  0  0  0  0  0  0  0  0  0  0  0
   12.9650   -1.0570    4.3900 C   0  0  0  0  0  0  0  0  0  0  0  0
   11.8270   -0.1230    4.7930 C   0  0  0  0  0  0  0  0  0  0  0  0
   14.3090   -0.3370    4.4810 C   0  0  0  0  0  0  0  0  0  0  0  0
   14.2710   -5.3650   -1.4440 C   0  0  0  0  0  0  0  0  0  0  0  0
   13.2350   -5.7110   -2.5130 C   0  0  0  0  0  0  0  0  0  0  0  0
   14.9610   -4.0440   -1.7760 C   0  0  0  0  0  0  0  0  0  0  0  0
   12.3160   -5.7740    4.1490 C   0  0  0  0  0  0  0  0  0  0  0  0
   10.7930   -5.8300    4.0350 C   0  0  0  0  0  0  0  0  0  0  0  0
   12.7320   -4.8740    5.3110 C   0  0  0  0  0  0  0  0  0  0  0  0
    9.6247   -6.2255    0.3838 H   0  0  0  0  0  0  0  0  0  0  0  0
    9.5576    0.1761    1.1097 H   0  0  0  0  0  0  0  0  0  0  0  0
    9.8546   -2.6377   -2.3192 H   0  0  0  0  0  0  0  0  0  0  0  0
   12.1370   -5.3035    2.1307 H   0  0  0  0  0  0  0  0  0  0  0  0
   13.6222   -1.3478    2.4324 H   0  0  0  0  0  0  0  0  0  0  0  0
   13.7936   -4.3755    0.4438 H   0  0  0  0  0  0  0  0  0  0  0  0
    9.7253   -4.2848   -3.2562 H   0  0  0  0  0  0  0  0  0  0  0  0
    9.2498   -5.9644   -3.1803 H   0  0  0  0  0  0  0  0  0  0  0  0
   10.9374   -5.5279   -3.0595 H   0  0  0  0  0  0  0  0  0  0  0  0
   12.6862    1.3789    0.3388 H   0  0  0  0  0  0  0  0  0  0  0  0
   13.6011   -0.0196    0.8490 H   0  0  0  0  0  0  0  0  0  0  0  0
   13.1503    1.2021    2.0140 H   0  0  0  0  0  0  0  0  0  0  0  0
   15.5074   -7.5300    2.6959 H   0  0  0  0  0  0  0  0  0  0  0  0
   14.1445   -7.5970    3.7872 H   0  0  0  0  0  0  0  0  0  0  0  0
   15.2941   -6.2864    3.9046 H   0  0  0  0  0  0  0  0  0  0  0  0
    7.7536   -3.0843   -3.0042 H   0  0  0  0  0  0  0  0  0  0  0  0
    6.9268   -3.5141   -0.1479 H   0  0  0  0  0  0  0  0  0  0  0  0
    7.4210   -4.7632   -1.2653 H   0  0  0  0  0  0  0  0  0  0  0  0
    5.9517   -3.8631   -1.5552 H   0  0  0  0  0  0  0  0  0  0  0  0
    7.0483   -1.0789   -0.8791 H   0  0  0  0  0  0  0  0  0  0  0  0
    6.0697   -1.4748   -2.2715 H   0  0  0  0  0  0  0  0  0  0  0  0
    7.6220   -0.7017   -2.4859 H   0  0  0  0  0  0  0  0  0  0  0  0
   11.3619    1.7298   -0.5662 H   0  0  0  0  0  0  0  0  0  0  0  0
    8.4299    1.1751   -1.0492 H   0  0  0  0  0  0  0  0  0  0  0  0
    9.7407    0.6240   -2.0646 H   0  0  0  0  0  0  0  0  0  0  0  0
    9.3959    2.3319   -1.9333 H   0  0  0  0  0  0  0  0  0  0  0  0
   10.7729    3.3104    0.8449 H   0  0  0  0  0  0  0  0  0  0  0  0
    9.6154    2.2100    1.6253 H   0  0  0  0  0  0  0  0  0  0  0  0
    9.0552    3.9258   -0.7584 H   0  0  0  0  0  0  0  0  0  0  0  0
    8.5010    4.2190    0.8725 H   0  0  0  0  0  0  0  0  0  0  0  0
    7.9354    2.8170   -0.0037 H   0  0  0  0  0  0  0  0  0  0  0  0
    9.6057   -8.4227   -0.5052 H   0  0  0  0  0  0  0  0  0  0  0  0
    7.7003   -6.5628   -1.9376 H   0  0  0  0  0  0  0  0  0  0  0  0
    7.4958   -7.1539   -0.3061 H   0  0  0  0  0  0  0  0  0  0  0  0
    7.4243   -8.2646   -1.6531 H   0  0  0  0  0  0  0  0  0  0  0  0
   10.7298   -7.2738   -2.8040 H   0  0  0  0  0  0  0  0  0  0  0  0
    9.1524   -7.9696   -3.2372 H   0  0  0  0  0  0  0  0  0  0  0  0
   11.4010   -9.4332   -1.9179 H   0  0  0  0  0  0  0  0  0  0  0  0
   10.9172   -9.5833   -3.5901 H   0  0  0  0  0  0  0  0  0  0  0  0
    9.8356  -10.0984   -2.3181 H   0  0  0  0  0  0  0  0  0  0  0  0
   12.9792   -1.8830    5.0701 H   0  0  0  0  0  0  0  0  0  0  0  0
   11.7961    0.7111    4.1235 H   0  0  0  0  0  0  0  0  0  0  0  0
   11.9891    0.2266    5.7912 H   0  0  0  0  0  0  0  0  0  0  0  0
   10.8981   -0.6520    4.7468 H   0  0  0  0  0  0  0  0  0  0  0  0
   14.3148    0.4940    3.8069 H   0  0  0  0  0  0  0  0  0  0  0  0
   15.0949   -1.0142    4.2191 H   0  0  0  0  0  0  0  0  0  0  0  0
   14.4588    0.0137    5.4808 H   0  0  0  0  0  0  0  0  0  0  0  0
   15.0113   -6.1375   -1.4297 H   0  0  0  0  0  0  0  0  0  0  0  0
   12.4848   -4.9486   -2.5426 H   0  0  0  0  0  0  0  0  0  0  0  0
   12.7798   -6.6504   -2.2778 H   0  0  0  0  0  0  0  0  0  0  0  0
   13.7151   -5.7762   -3.4670 H   0  0  0  0  0  0  0  0  0  0  0  0
   14.2356   -3.2576   -1.7950 H   0  0  0  0  0  0  0  0  0  0  0  0
   15.4316   -4.1184   -2.7341 H   0  0  0  0  0  0  0  0  0  0  0  0
   15.6993   -3.8303   -1.0316 H   0  0  0  0  0  0  0  0  0  0  0  0
   12.6765   -6.7626    4.3427 H   0  0  0  0  0  0  0  0  0  0  0  0
   10.4135   -4.8485    3.8410 H   0  0  0  0  0  0  0  0  0  0  0  0
   10.3800   -6.1974    4.9512 H   0  0  0  0  0  0  0  0  0  0  0  0
   10.5191   -6.4833    3.2330 H   0  0  0  0  0  0  0  0  0  0  0  0
   12.3799   -3.8790    5.1353 H   0  0  0  0  0  0  0  0  0  0  0  0
   13.7989   -4.8657    5.3915 H   0  0  0  0  0  0  0  0  0  0  0  0
   12.3086   -5.2468    6.2202 H   0  0  0  0  0  0  0  0  0  0  0  0
  1 15  1  0  0  0  0
  1 20  1  0  0  0  0
  2 22  1  0  0  0  0
  2 18  1  0  0  0  0
  3 17  1  0  0  0  0
  3 24  1  0  0  0  0
  4 19  2  0  0  0  0
  5 20  2  0  0  0  0
  6 21  2  0  0  0  0
  7 22  2  0  0  0  0
  8 23  2  0  0  0  0
  9 24  2  0  0  0  0
 10 25  1  0  0  0  0
 10 19  1  0  0  0  0
 10 13  1  0  0  0  0
 11 14  1  0  0  0  0
 11 26  1  0  0  0  0
 11 21  1  0  0  0  0
 12 23  1  0  0  0  0
 12 16  1  0  0  0  0
 12 27  1  0  0  0  0
 13 35  1  0  0  0  0
 13 22  1  0  0  0  0
 13 48  1  1  0  0  0
 14 20  1  0  0  0  0
 14 31  1  0  0  0  0
 14 49  1  1  0  0  0
 15 28  1  0  0  0  0
 15 19  1  0  0  0  0
 15 50  1  6  0  0  0
 16 24  1  0  0  0  0
 16 45  1  0  0  0  0
 16 51  1  6  0  0  0
 17 21  1  0  0  0  0
 17 39  1  0  0  0  0
 17 52  1  6  0  0  0
 18 42  1  0  0  0  0
 18 23  1  0  0  0  0
 18 53  1  1  0  0  0
 25 54  1  0  0  0  0
 25 55  1  0  0  0  0
 25 56  1  0  0  0  0
 26 57  1  0  0  0  0
 26 58  1  0  0  0  0
 26 59  1  0  0  0  0
 27 60  1  0  0  0  0
 27 61  1  0  0  0  0
 27 62  1  0  0  0  0
 28 30  1  0  0  0  0
 28 29  1  0  0  0  0
 28 63  1  0  0  0  0
 29 64  1  0  0  0  0
 29 65  1  0  0  0  0
 29 66  1  0  0  0  0
 30 67  1  0  0  0  0
 30 68  1  0  0  0  0
 30 69  1  0  0  0  0
 31 32  1  0  0  0  0
 31 33  1  0  0  0  0
 31 70  1  6  0  0  0
 32 71  1  0  0  0  0
 32 72  1  0  0  0  0
 32 73  1  0  0  0  0
 33 34  1  0  0  0  0
 33 74  1  0  0  0  0
 33 75  1  0  0  0  0
 34 76  1  0  0  0  0
 34 77  1  0  0  0  0
 34 78  1  0  0  0  0
 35 37  1  0  0  0  0
 35 36  1  0  0  0  0
 35 79  1  1  0  0  0
 36 80  1  0  0  0  0
 36 81  1  0  0  0  0
 36 82  1  0  0  0  0
 37 38  1  0  0  0  0
 37 83  1  0  0  0  0
 37 84  1  0  0  0  0
 38 85  1  0  0  0  0
 38 86  1  0  0  0  0
 38 87  1  0  0  0  0
 39 41  1  0  0  0  0
 39 40  1  0  0  0  0
 39 88  1  0  0  0  0
 40 89  1  0  0  0  0
 40 90  1  0  0  0  0
 40 91  1  0  0  0  0
 41 92  1  0  0  0  0
 41 93  1  0  0  0  0
 41 94  1  0  0  0  0
 42 43  1  0  0  0  0
 42 44  1  0  0  0  0
 42 95  1  0  0  0  0
 43 96  1  0  0  0  0
 43 97  1  0  0  0  0
 43 98  1  0  0  0  0
 44 99  1  0  0  0  0
 44100  1  0  0  0  0
 44101  1  0  0  0  0
 45 46  1  0  0  0  0
 45 47  1  0  0  0  0
 45102  1  0  0  0  0
 46103  1  0  0  0  0
 46104  1  0  0  0  0
 46105  1  0  0  0  0
 47106  1  0  0  0  0
 47107  1  0  0  0  0
 47108  1  0  0  0  0
M  END
