@<TRIPOS>MOLECULE
Results/Site1/HOLO/ENB/ENB-Site1_1.pdb
  102   102     1     0     0
SMALL
bcc


@<TRIPOS>ATOM
      1 O           13.0970    -3.7900     3.7330 os         1 UNL      -0.421900
      2 O1           9.7850    -3.3310    -0.2170 os         1 UNL      -0.421900
      3 O2          12.3660     0.4900     0.8270 os         1 UNL      -0.421900
      4 O3          13.1240    -3.7460     1.1420 o          1 UNL      -0.573100
      5 O4          14.7370    -1.3870     1.8530 o          1 UNL      -0.573100
      6 O5           9.6770    -0.6580    -2.0480 o          1 UNL      -0.573100
      7 O6          11.3430    -2.3040     3.9180 o          1 UNL      -0.540667
      8 O7          10.6910    -3.4300    -2.3320 o          1 UNL      -0.540667
      9 O8          12.1240     2.7250     0.3570 o          1 UNL      -0.540667
     10 N           11.3490    -5.1870     0.7950 n          1 UNL      -0.465467
     11 N1          13.4240    -0.4150     3.5010 n          1 UNL      -0.465467
     12 N2           9.8330    -0.1460     0.2150 n          1 UNL      -0.465467
     13 C           11.4550    -4.9980    -0.6670 c3         1 UNL       0.063367
     14 C1          13.6200    -1.5830     4.3840 c3         1 UNL       0.063367
     15 C2          10.2560     1.2460    -0.0460 c3         1 UNL       0.063367
     16 C3          12.2510    -4.7830     3.1130 c3         1 UNL       0.091433
     17 C4           8.8210    -2.3120    -0.5330 c3         1 UNL       0.091433
     18 C5          13.7210     0.6990     1.2710 c3         1 UNL       0.091433
     19 C6          12.2800    -4.5210     1.6050 c          1 UNL       0.648433
     20 C7          14.0130    -0.4580     2.2250 c          1 UNL       0.648433
     21 C8           9.4900    -0.9710    -0.8690 c          1 UNL       0.648433
     22 C9          12.5330    -2.5750     4.0030 c          1 UNL       0.622100
     23 C10         10.6200    -3.8230    -1.1730 c          1 UNL       0.622100
     24 C11         11.6730     1.5860     0.4100 c          1 UNL       0.622100
     25 C12         10.2580    -6.0260     1.3000 c3         1 UNL       0.071967
     26 C13         12.6030     0.6920     4.0020 c3         1 UNL       0.071967
     27 C14          9.6220    -0.5380     1.6100 c3         1 UNL       0.071967
     28 C15         12.8570    -6.1410     3.4350 c3         1 UNL      -0.072033
     29 C16         14.2560    -5.9800     4.0300 c3         1 UNL      -0.094767
     30 C17         11.9570    -6.9220     4.3920 c3         1 UNL      -0.094767
     31 C18         13.5770    -1.3040     5.8810 c3         1 UNL      -0.065700
     32 C19         13.6440    -2.6090     6.6720 c3         1 UNL      -0.102600
     33 C20         14.7160    -0.3720     6.2870 c3         1 UNL      -0.102600
     34 C21         11.1240    -6.2510    -1.4760 c3         1 UNL      -0.065700
     35 C22         12.3130    -6.6600    -2.3460 c3         1 UNL      -0.102600
     36 C23          9.8830    -6.0280    -2.3380 c3         1 UNL      -0.102600
     37 C24         14.6430     0.6740     0.0550 c3         1 UNL      -0.072033
     38 C25         13.9570    -0.0120    -1.1270 c3         1 UNL      -0.094767
     39 C26         15.0750     2.0880    -0.3250 c3         1 UNL      -0.094767
     40 C27          7.8430    -2.7720    -1.6140 c3         1 UNL      -0.072033
     41 C28          6.8190    -1.6780    -1.9130 c3         1 UNL      -0.094767
     42 C29          7.1420    -4.0620    -1.1920 c3         1 UNL      -0.094767
     43 C30          9.2540     2.2490     0.5300 c3         1 UNL      -0.065700
     44 C31          9.8380     2.9410     1.7580 c3         1 UNL      -0.102600
     45 C32          8.8570     3.2730    -0.5290 c3         1 UNL      -0.102600
     46 H           12.4900    -4.7760    -0.8260 h1         1 UNL       0.129700
     47 H1          14.6140    -1.9480     4.2310 h1         1 UNL       0.129700
     48 H2          10.2720     1.3260    -1.1130 h1         1 UNL       0.129700
     49 H3          11.2390    -4.7490     3.4600 h1         1 UNL       0.091033
     50 H4           8.2390    -2.1420     0.3490 h1         1 UNL       0.091033
     51 H5          13.8690     1.6380     1.7620 h1         1 UNL       0.091033
     52 H6           9.6960    -6.4140     0.4760 h1         1 UNL       0.049367
     53 H7           9.6170    -5.4390     1.9240 h1         1 UNL       0.049367
     54 H8          10.6650    -6.8360     1.8680 h1         1 UNL       0.049367
     55 H9          12.5500     1.4610     3.2600 h1         1 UNL       0.049367
     56 H10         13.0430     1.0870     4.8940 h1         1 UNL       0.049367
     57 H11         11.6170     0.3360     4.2170 h1         1 UNL       0.049367
     58 H12          9.3210    -1.5640     1.6510 h1         1 UNL       0.049367
     59 H13          8.8580     0.0750     2.0410 h1         1 UNL       0.049367
     60 H14         10.5330    -0.4120     2.1580 h1         1 UNL       0.049367
     61 H15         12.9390    -6.6940     2.5220 hc         1 UNL       0.080033
     62 H16         14.1930    -5.4290     4.9450 hc         1 UNL       0.042756
     63 H17         14.8790    -5.4530     3.3380 hc         1 UNL       0.042756
     64 H18         14.6750    -6.9460     4.2240 hc         1 UNL       0.042756
     65 H19         11.8630    -6.3840     5.3120 hc         1 UNL       0.042756
     66 H20         12.3880    -7.8830     4.5830 hc         1 UNL       0.042756
     67 H21         10.9900    -7.0460     3.9510 hc         1 UNL       0.042756
     68 H22         12.6500    -0.8200     6.1060 hc         1 UNL       0.061700
     69 H23         14.5660    -3.1080     6.4590 hc         1 UNL       0.044978
     70 H24         12.8250    -3.2380     6.3920 hc         1 UNL       0.044978
     71 H25         13.5880    -2.3950     7.7190 hc         1 UNL       0.044978
     72 H26         15.6540    -0.8390     6.0690 hc         1 UNL       0.044978
     73 H27         14.6540    -0.1690     7.3360 hc         1 UNL       0.044978
     74 H28         14.6390     0.5450     5.7410 hc         1 UNL       0.044978
     75 H29         10.9170    -7.0450    -0.7890 hc         1 UNL       0.061700
     76 H30         12.5340    -5.8760    -3.0400 hc         1 UNL       0.044978
     77 H31         12.0720    -7.5530    -2.8830 hc         1 UNL       0.044978
     78 H32         13.1660    -6.8370    -1.7240 hc         1 UNL       0.044978
     79 H33         10.0690    -5.2360    -3.0330 hc         1 UNL       0.044978
     80 H34          9.0560    -5.7660    -1.7120 hc         1 UNL       0.044978
     81 H35          9.6550    -6.9260    -2.8730 hc         1 UNL       0.044978
     82 H36         15.5170     0.1130     0.3110 hc         1 UNL       0.080033
     83 H37         13.0790     0.5360    -1.3970 hc         1 UNL       0.042756
     84 H38         13.6840    -1.0090    -0.8510 hc         1 UNL       0.042756
     85 H39         14.6280    -0.0430    -1.9600 hc         1 UNL       0.042756
     86 H40         14.2130     2.6670    -0.5850 hc         1 UNL       0.042756
     87 H41         15.7410     2.0450    -1.1610 hc         1 UNL       0.042756
     88 H42         15.5740     2.5440     0.5050 hc         1 UNL       0.042756
     89 H43          8.3980    -2.9680    -2.5080 hc         1 UNL       0.080033
     90 H44          6.2530    -1.4680    -1.0300 hc         1 UNL       0.042756
     91 H45          6.1600    -2.0090    -2.6880 hc         1 UNL       0.042756
     92 H46          7.3270    -0.7910    -2.2300 hc         1 UNL       0.042756
     93 H47          6.5800    -3.8870    -0.2980 hc         1 UNL       0.042756
     94 H48          7.8730    -4.8220    -1.0110 hc         1 UNL       0.042756
     95 H49          6.4820    -4.3800    -1.9710 hc         1 UNL       0.042756
     96 H50          8.3750     1.7180     0.8310 hc         1 UNL       0.061700
     97 H51         10.7200     3.4790     1.4790 hc         1 UNL       0.044978
     98 H52         10.0860     2.2080     2.4960 hc         1 UNL       0.044978
     99 H53          9.1170     3.6220     2.1600 hc         1 UNL       0.044978
    100 H54          9.7240     3.8160    -0.8430 hc         1 UNL       0.044978
    101 H55          8.1410     3.9530    -0.1170 hc         1 UNL       0.044978
    102 H56          8.4280     2.7690    -1.3690 hc         1 UNL       0.044978
@<TRIPOS>BOND
     1     1    16 1   
     2     1    22 1   
     3     2    23 1   
     4     2    17 1   
     5     3    24 1   
     6     3    18 1   
     7     4    19 2   
     8     5    20 2   
     9     6    21 2   
    10     7    22 2   
    11     8    23 2   
    12     9    24 2   
    13    10    13 1   
    14    10    25 1   
    15    10    19 1   
    16    11    20 1   
    17    11    26 1   
    18    11    14 1   
    19    12    21 1   
    20    12    15 1   
    21    12    27 1   
    22    13    34 1   
    23    13    23 1   
    24    14    22 1   
    25    14    31 1   
    26    15    24 1   
    27    15    43 1   
    28    16    19 1   
    29    16    28 1   
    30    17    40 1   
    31    17    21 1   
    32    18    37 1   
    33    18    20 1   
    34    28    29 1   
    35    28    30 1   
    36    31    33 1   
    37    31    32 1   
    38    34    35 1   
    39    34    36 1   
    40    37    38 1   
    41    37    39 1   
    42    40    41 1   
    43    40    42 1   
    44    43    45 1   
    45    43    44 1   
    46    13    46 1   
    47    14    47 1   
    48    15    48 1   
    49    16    49 1   
    50    17    50 1   
    51    18    51 1   
    52    25    52 1   
    53    25    53 1   
    54    25    54 1   
    55    26    55 1   
    56    26    56 1   
    57    26    57 1   
    58    27    58 1   
    59    27    59 1   
    60    27    60 1   
    61    28    61 1   
    62    29    62 1   
    63    29    63 1   
    64    29    64 1   
    65    30    65 1   
    66    30    66 1   
    67    30    67 1   
    68    31    68 1   
    69    32    69 1   
    70    32    70 1   
    71    32    71 1   
    72    33    72 1   
    73    33    73 1   
    74    33    74 1   
    75    34    75 1   
    76    35    76 1   
    77    35    77 1   
    78    35    78 1   
    79    36    79 1   
    80    36    80 1   
    81    36    81 1   
    82    37    82 1   
    83    38    83 1   
    84    38    84 1   
    85    38    85 1   
    86    39    86 1   
    87    39    87 1   
    88    39    88 1   
    89    40    89 1   
    90    41    90 1   
    91    41    91 1   
    92    41    92 1   
    93    42    93 1   
    94    42    94 1   
    95    42    95 1   
    96    43    96 1   
    97    44    97 1   
    98    44    98 1   
    99    44    99 1   
   100    45   100 1   
   101    45   101 1   
   102    45   102 1   
@<TRIPOS>SUBSTRUCTURE
     1 UNL         1 TEMP              0 ****  ****    0 ROOT
