@<TRIPOS>MOLECULE
Results/Site1/HOLO/ENA1/ENA1-Site1_1.pdb
  108   108     1     0     0
SMALL
bcc


@<TRIPOS>ATOM
      1 O            9.2750    -1.5400    -0.6380 os         1 UNL      -0.400900
      2 O1          12.2040    -5.3760    -0.2470 os         1 UNL      -0.444900
      3 O2          12.4550    -3.0100     3.0360 os         1 UNL      -0.422900
      4 O3           9.5260    -3.8670     0.5710 o          1 UNL      -0.587100
      5 O4          11.5240    -1.3090    -1.0990 o          1 UNL      -0.554000
      6 O5          10.3700    -1.5010     2.7260 o          1 UNL      -0.579100
      7 O6          12.1010    -7.6750    -0.2800 o          1 UNL      -0.504000
      8 O7          15.0750    -7.1400     0.4830 o          1 UNL      -0.564100
      9 O8          14.6830    -3.6000     3.1190 o          1 UNL      -0.547000
     10 N            9.8080    -5.1310    -1.3530 n          1 UNL      -0.451800
     11 N1          11.5940    -0.0390     1.4030 n          1 UNL      -0.473800
     12 N2          13.9920    -6.1640     2.2860 n          1 UNL      -0.460800
     13 C           10.0720    -6.3660    -0.5780 c3         1 UNL       0.056700
     14 C1          10.4410     0.1680     0.5060 c3         1 UNL       0.069700
     15 C2           9.1810    -2.6980    -1.4900 c3         1 UNL       0.088100
     16 C3          12.9380    -5.2890     2.8400 c3         1 UNL       0.064700
     17 C4          12.7420    -1.5960     2.9880 c3         1 UNL       0.088100
     18 C5          13.6210    -5.3030    -0.0610 c3         1 UNL       0.100100
     19 C6           9.5230    -3.9430    -0.6630 c          1 UNL       0.644100
     20 C7          10.5090    -0.9660    -0.5080 c          1 UNL       0.623100
     21 C8          11.4620    -1.0280     2.3890 c          1 UNL       0.666100
     22 C9          11.5750    -6.5750    -0.3950 c          1 UNL       0.612100
     23 C10         14.2830    -6.2980     0.9190 c          1 UNL       0.642100
     24 C11         13.5000    -3.8880     3.0180 c          1 UNL       0.608100
     25 C12          9.9390    -5.2340    -2.8110 c3         1 UNL       0.056300
     26 C13         12.8420     0.6790     1.1330 c3         1 UNL       0.066300
     27 C14         14.7880    -6.9470     3.2320 c3         1 UNL       0.063300
     28 C15          7.7410    -2.7750    -1.9800 c3         1 UNL      -0.054700
     29 C16          6.9510    -3.8060    -1.1770 c3         1 UNL      -0.096100
     30 C17          7.0700    -1.4050    -1.8980 c3         1 UNL      -0.096100
     31 C18         10.3750     1.5040    -0.2200 c3         1 UNL      -0.067700
     32 C19          9.4130     1.4010    -1.4060 c3         1 UNL      -0.094600
     33 C20          9.9400     2.6530     0.7070 c3         1 UNL      -0.078900
     34 C21          8.7710     3.4640     0.1640 c3         1 UNL      -0.092100
     35 C22          9.4020    -7.6070    -1.1670 c3         1 UNL      -0.067700
     36 C23          7.8920    -7.3800    -1.2740 c3         1 UNL      -0.094600
     37 C24          9.9700    -7.9820    -2.5470 c3         1 UNL      -0.078900
     38 C25         10.5760    -9.3780    -2.5970 c3         1 UNL      -0.092100
     39 C26         12.9650    -1.0570     4.3900 c3         1 UNL      -0.070700
     40 C27         11.8270    -0.1230     4.7930 c3         1 UNL      -0.097100
     41 C28         14.3090    -0.3370     4.4810 c3         1 UNL      -0.097100
     42 C29         14.2710    -5.3650    -1.4440 c3         1 UNL      -0.085700
     43 C30         13.2350    -5.7110    -2.5130 c3         1 UNL      -0.092100
     44 C31         14.9610    -4.0440    -1.7760 c3         1 UNL      -0.092100
     45 C32         12.3160    -5.7740     4.1490 c3         1 UNL      -0.055700
     46 C33         10.7930    -5.8300     4.0350 c3         1 UNL      -0.107100
     47 C34         12.7320    -4.8740     5.3110 c3         1 UNL      -0.107100
     48 H            9.6250    -6.2260     0.3840 h1         1 UNL       0.120700
     49 H1           9.5580     0.1760     1.1100 h1         1 UNL       0.120700
     50 H2           9.8550    -2.6380    -2.3190 h1         1 UNL       0.085700
     51 H3          12.1370    -5.3030     2.1310 h1         1 UNL       0.115700
     52 H4          13.6220    -1.3480     2.4320 h1         1 UNL       0.093700
     53 H5          13.7940    -4.3750     0.4440 h1         1 UNL       0.087700
     54 H6           9.7250    -4.2850    -3.2560 h1         1 UNL       0.055033
     55 H7           9.2500    -5.9640    -3.1800 h1         1 UNL       0.055033
     56 H8          10.9370    -5.5280    -3.0590 h1         1 UNL       0.055033
     57 H9          12.6860     1.3790     0.3390 h1         1 UNL       0.051700
     58 H10         13.6010    -0.0200     0.8490 h1         1 UNL       0.051700
     59 H11         13.1500     1.2020     2.0140 h1         1 UNL       0.051700
     60 H12         15.5070    -7.5300     2.6960 h1         1 UNL       0.053033
     61 H13         14.1450    -7.5970     3.7870 h1         1 UNL       0.053033
     62 H14         15.2940    -6.2860     3.9050 h1         1 UNL       0.053033
     63 H15          7.7540    -3.0840    -3.0040 hc         1 UNL       0.059700
     64 H16          6.9270    -3.5140    -0.1480 hc         1 UNL       0.045367
     65 H17          7.4210    -4.7630    -1.2650 hc         1 UNL       0.045367
     66 H18          5.9520    -3.8630    -1.5550 hc         1 UNL       0.045367
     67 H19          7.0480    -1.0790    -0.8790 hc         1 UNL       0.045367
     68 H20          6.0700    -1.4750    -2.2720 hc         1 UNL       0.045367
     69 H21          7.6220    -0.7020    -2.4860 hc         1 UNL       0.045367
     70 H22         11.3620     1.7300    -0.5660 hc         1 UNL       0.067200
     71 H23          8.4300     1.1750    -1.0490 hc         1 UNL       0.041867
     72 H24          9.7410     0.6240    -2.0650 hc         1 UNL       0.041867
     73 H25          9.3960     2.3320    -1.9330 hc         1 UNL       0.041867
     74 H26         10.7730     3.3100     0.8450 hc         1 UNL       0.047700
     75 H27          9.6150     2.2100     1.6250 hc         1 UNL       0.047700
     76 H28          9.0550     3.9260    -0.7580 hc         1 UNL       0.035867
     77 H29          8.5010     4.2190     0.8730 hc         1 UNL       0.035867
     78 H30          7.9350     2.8170    -0.0040 hc         1 UNL       0.035867
     79 H31          9.6060    -8.4230    -0.5050 hc         1 UNL       0.067200
     80 H32          7.7000    -6.5630    -1.9380 hc         1 UNL       0.041867
     81 H33          7.4960    -7.1540    -0.3060 hc         1 UNL       0.041867
     82 H34          7.4240    -8.2650    -1.6530 hc         1 UNL       0.041867
     83 H35         10.7300    -7.2740    -2.8040 hc         1 UNL       0.047700
     84 H36          9.1520    -7.9700    -3.2370 hc         1 UNL       0.047700
     85 H37         11.4010    -9.4330    -1.9180 hc         1 UNL       0.035867
     86 H38         10.9170    -9.5830    -3.5900 hc         1 UNL       0.035867
     87 H39          9.8360   -10.0980    -2.3180 hc         1 UNL       0.035867
     88 H40         12.9790    -1.8830     5.0700 hc         1 UNL       0.082700
     89 H41         11.7960     0.7110     4.1230 hc         1 UNL       0.042033
     90 H42         11.9890     0.2270     5.7910 hc         1 UNL       0.042033
     91 H43         10.8980    -0.6520     4.7470 hc         1 UNL       0.042033
     92 H44         14.3150     0.4940     3.8070 hc         1 UNL       0.042033
     93 H45         15.0950    -1.0140     4.2190 hc         1 UNL       0.042033
     94 H46         14.4590     0.0140     5.4810 hc         1 UNL       0.042033
     95 H47         15.0110    -6.1380    -1.4300 hc         1 UNL       0.101700
     96 H48         12.4850    -4.9490    -2.5430 hc         1 UNL       0.040200
     97 H49         12.7800    -6.6500    -2.2780 hc         1 UNL       0.040200
     98 H50         13.7150    -5.7760    -3.4670 hc         1 UNL       0.040200
     99 H51         14.2360    -3.2580    -1.7950 hc         1 UNL       0.040200
    100 H52         15.4320    -4.1180    -2.7340 hc         1 UNL       0.040200
    101 H53         15.6990    -3.8300    -1.0320 hc         1 UNL       0.040200
    102 H54         12.6770    -6.7630     4.3430 hc         1 UNL       0.063700
    103 H55         10.4140    -4.8480     3.8410 hc         1 UNL       0.048700
    104 H56         10.3800    -6.1970     4.9510 hc         1 UNL       0.048700
    105 H57         10.5190    -6.4830     3.2330 hc         1 UNL       0.048700
    106 H58         12.3800    -3.8790     5.1350 hc         1 UNL       0.048700
    107 H59         13.7990    -4.8660     5.3910 hc         1 UNL       0.048700
    108 H60         12.3090    -5.2470     6.2200 hc         1 UNL       0.048700
@<TRIPOS>BOND
     1     1    15 1   
     2     1    20 1   
     3     2    22 1   
     4     2    18 1   
     5     3    17 1   
     6     3    24 1   
     7     4    19 2   
     8     5    20 2   
     9     6    21 2   
    10     7    22 2   
    11     8    23 2   
    12     9    24 2   
    13    10    25 1   
    14    10    19 1   
    15    10    13 1   
    16    11    14 1   
    17    11    26 1   
    18    11    21 1   
    19    12    23 1   
    20    12    16 1   
    21    12    27 1   
    22    13    35 1   
    23    13    22 1   
    24    14    20 1   
    25    14    31 1   
    26    15    28 1   
    27    15    19 1   
    28    16    24 1   
    29    16    45 1   
    30    17    21 1   
    31    17    39 1   
    32    18    42 1   
    33    18    23 1   
    34    28    30 1   
    35    28    29 1   
    36    31    32 1   
    37    31    33 1   
    38    33    34 1   
    39    35    37 1   
    40    35    36 1   
    41    37    38 1   
    42    39    41 1   
    43    39    40 1   
    44    42    43 1   
    45    42    44 1   
    46    45    46 1   
    47    45    47 1   
    48    13    48 1   
    49    14    49 1   
    50    15    50 1   
    51    16    51 1   
    52    17    52 1   
    53    18    53 1   
    54    25    54 1   
    55    25    55 1   
    56    25    56 1   
    57    26    57 1   
    58    26    58 1   
    59    26    59 1   
    60    27    60 1   
    61    27    61 1   
    62    27    62 1   
    63    28    63 1   
    64    29    64 1   
    65    29    65 1   
    66    29    66 1   
    67    30    67 1   
    68    30    68 1   
    69    30    69 1   
    70    31    70 1   
    71    32    71 1   
    72    32    72 1   
    73    32    73 1   
    74    33    74 1   
    75    33    75 1   
    76    34    76 1   
    77    34    77 1   
    78    34    78 1   
    79    35    79 1   
    80    36    80 1   
    81    36    81 1   
    82    36    82 1   
    83    37    83 1   
    84    37    84 1   
    85    38    85 1   
    86    38    86 1   
    87    38    87 1   
    88    39    88 1   
    89    40    89 1   
    90    40    90 1   
    91    40    91 1   
    92    41    92 1   
    93    41    93 1   
    94    41    94 1   
    95    42    95 1   
    96    43    96 1   
    97    43    97 1   
    98    43    98 1   
    99    44    99 1   
   100    44   100 1   
   101    44   101 1   
   102    45   102 1   
   103    46   103 1   
   104    46   104 1   
   105    46   105 1   
   106    47   106 1   
   107    47   107 1   
   108    47   108 1   
@<TRIPOS>SUBSTRUCTURE
     1 UNL         1 TEMP              0 ****  ****    0 ROOT
