Ligand_Pubchem_Data/Sucrose/SUC.pdb
 OpenBabel09162521482D

 45 46  0  0  1  0  0  0  0  0999 V2000
    4.5040   -2.0248    0.0000 O   0  0  0  0  0  0  0  0  0  0  0  0
    1.9079   -0.9257    0.0000 O   0  0  0  0  0  0  0  0  0  0  0  0
    0.8299   -0.4792    0.0000 O   0  0  0  0  0  0  0  0  0  0  0  0
    4.0526    0.4300    0.0000 O   0  0  0  0  0  0  0  0  0  0  0  0
    5.9544   -0.2338    0.0000 O   0  0  0  0  0  0  0  0  0  0  0  0
    2.1390    1.7883    0.0000 O   0  0  0  0  0  0  0  0  0  0  0  0
    0.3508    2.2674    0.0000 O   0  0  0  0  0  0  0  0  0  0  0  0
   -0.9583    0.9583    0.0000 O   0  0  0  0  0  0  0  0  0  0  0  0
    2.1560   -1.8514    0.0000 O   0  0  0  0  0  0  0  0  0  0  0  0
    5.5674   -3.1423    0.0000 O   0  0  0  0  0  0  0  0  0  0  0  0
    0.0000   -1.6599    0.0000 O   0  0  0  0  0  0  0  0  0  0  0  0
    3.7593   -1.4217    0.0000 C   0  0  1  0  0  0  0  0  0  0  0  0
    4.1027   -0.5271    0.0000 C   0  0  2  0  0  0  0  0  0  0  0  0
    5.0597   -0.5772    0.0000 C   0  0  1  0  0  0  0  0  0  0  0  0
    5.3078   -1.5029    0.0000 C   0  0  1  0  0  0  0  0  0  0  0  0
    1.6599    0.0000    0.0000 C   0  0  1  0  0  0  0  0  0  0  0  0
    1.6599    0.9583    0.0000 C   0  0  1  0  0  0  0  0  0  0  0  0
    0.8299    1.4375    0.0000 C   0  0  2  0  0  0  0  0  0  0  0  0
   -0.0000    0.9583    0.0000 C   0  0  1  0  0  0  0  0  0  0  0  0
    0.0000   -0.0000    0.0000 C   0  0  1  0  0  0  0  0  0  0  0  0
    3.0816   -2.0994    0.0000 C   0  0  0  0  0  0  0  0  0  0  0  0
    5.9109   -2.2477    0.0000 C   0  0  0  0  0  0  0  0  0  0  0  0
   -0.4792   -0.8299    0.0000 C   0  0  0  0  0  0  0  0  0  0  0  0
    3.2488   -0.0920    0.0000 H   0  0  0  0  0  0  0  0  0  0  0  0
    5.2096    0.3693    0.0000 H   0  0  0  0  0  0  0  0  0  0  0  0
    6.2543   -1.3530    0.0000 H   0  0  0  0  0  0  0  0  0  0  0  0
    2.4202    0.5834    0.0000 H   0  0  0  0  0  0  0  0  0  0  0  0
    3.5765    0.9583    0.0000 H   0  0  0  0  0  0  0  0  0  0  0  0
    1.3091    2.2674    0.0000 H   0  0  0  0  0  0  0  0  0  0  0  0
   -0.4792    1.7883    0.0000 H   0  0  0  0  0  0  0  0  0  0  0  0
   -0.9583   -0.0000    0.0000 H   0  0  0  0  0  0  0  0  0  0  0  0
    2.8336   -3.0251    0.0000 H   0  0  0  0  0  0  0  0  0  0  0  0
    3.7593   -2.7770    0.0000 H   0  0  0  0  0  0  0  0  0  0  0  0
    6.8055   -2.5911    0.0000 H   0  0  0  0  0  0  0  0  0  0  0  0
    6.6556   -1.6446    0.0000 H   0  0  0  0  0  0  0  0  0  0  0  0
   -1.3091   -1.3091    0.0000 H   0  0  0  0  0  0  0  0  0  0  0  0
   -1.3091   -0.3508    0.0000 H   0  0  0  0  0  0  0  0  0  0  0  0
    4.8563    0.9519    0.0000 H   0  0  0  0  0  0  0  0  0  0  0  0
    6.6992   -0.8369    0.0000 H   0  0  0  0  0  0  0  0  0  0  0  0
    1.6599    2.6182    0.0000 H   0  0  0  0  0  0  0  0  0  0  0  0
   -0.6076    2.2674    0.0000 H   0  0  0  0  0  0  0  0  0  0  0  0
   -1.4375    1.7883    0.0000 H   0  0  0  0  0  0  0  0  0  0  0  0
    1.4783   -2.5290    0.0000 H   0  0  0  0  0  0  0  0  0  0  0  0
    6.1705   -3.8871    0.0000 H   0  0  0  0  0  0  0  0  0  0  0  0
   -0.4792   -2.4898    0.0000 H   0  0  0  0  0  0  0  0  0  0  0  0
  1 12  1  0  0  0  0
  1 15  1  0  0  0  0
  2 16  1  0  0  0  0
  3 16  1  0  0  0  0
  3 20  1  0  0  0  0
  4 13  1  0  0  0  0
  4 38  1  0  0  0  0
  5 14  1  0  0  0  0
  5 39  1  0  0  0  0
  6 17  1  0  0  0  0
  6 40  1  0  0  0  0
  7 18  1  0  0  0  0
  7 41  1  0  0  0  0
  8 19  1  0  0  0  0
  8 42  1  0  0  0  0
  9 21  1  0  0  0  0
  9 43  1  0  0  0  0
 10 22  1  0  0  0  0
 10 44  1  0  0  0  0
 11 23  1  0  0  0  0
 11 45  1  0  0  0  0
 12  2  1  1  0  0  0
 12 13  1  0  0  0  0
 12 21  1  0  0  0  0
 13 14  1  0  0  0  0
 13 24  1  6  0  0  0
 14 15  1  0  0  0  0
 14 25  1  1  0  0  0
 15 22  1  0  0  0  0
 15 26  1  6  0  0  0
 16 17  1  0  0  0  0
 16 27  1  6  0  0  0
 17 18  1  0  0  0  0
 17 28  1  6  0  0  0
 18 19  1  0  0  0  0
 18 29  1  1  0  0  0
 19 20  1  0  0  0  0
 19 30  1  6  0  0  0
 20 23  1  0  0  0  0
 20 31  1  1  0  0  0
 21 32  1  0  0  0  0
 21 33  1  0  0  0  0
 22 34  1  0  0  0  0
 22 35  1  0  0  0  0
 23 36  1  0  0  0  0
 23 37  1  0  0  0  0
M  END
>  <COMPND>
    5988 

>  <AUTHOR>
    GENERATED BY OPEN BABEL 3.1.0

>  <MASTER>
        0    0    0    0    0    0    0    0   45    0   45    0

$$$$
