@<TRIPOS>MOLECULE
IBP-Site2_1h.pdb
   33    33     1     0     0
SMALL
bcc


@<TRIPOS>ATOM
      1 C            7.2540     3.4480   -14.0160 ca         1 UNL      -0.120300
      2 C1           8.1530     2.4800   -14.4220 ca         1 UNL      -0.116000
      3 C2           9.4640     2.5310   -13.9910 ca         1 UNL      -0.128500
      4 C3           9.8770     3.5500   -13.1540 ca         1 UNL      -0.062300
      5 C4           8.9770     4.5140   -12.7440 ca         1 UNL      -0.128500
      6 C5           7.6670     4.4660   -13.1790 ca         1 UNL      -0.116000
      7 C6           5.8240     3.3940   -14.4870 c3         1 UNL      -0.104400
      8 C7           5.1360     2.1630   -13.8930 c3         1 UNL      -0.083100
      9 C8           5.7930     3.3100   -15.9910 c          1 UNL       0.625100
     10 O            5.3480     2.3250   -16.5320 o          1 UNL      -0.492000
     11 O1           6.2610     4.3280   -16.7300 oh         1 UNL      -0.580100
     12 H            7.2050     4.5400   -16.7190 ho         1 UNL       0.431000
     13 C9          11.3080     3.6050   -12.6840 c3         1 UNL      -0.040100
     14 C10         11.7540     2.2110   -12.2420 c3         1 UNL      -0.065700
     15 C11         12.9630     1.7740   -13.0720 c3         1 UNL      -0.091600
     16 C12         12.1370     2.2430   -10.7620 c3         1 UNL      -0.091600
     17 H1           7.8450     1.7190   -15.0470 ha         1 UNL       0.138000
     18 H2          10.1350     1.8080   -14.2940 ha         1 UNL       0.138000
     19 H3           9.2830     5.2700   -12.1120 ha         1 UNL       0.138000
     20 H4           6.9970     5.1910   -12.8790 ha         1 UNL       0.138000
     21 H5           5.3110     4.2770   -14.1680 hc         1 UNL       0.080700
     22 H6           5.6490     1.2790   -14.2110 hc         1 UNL       0.052033
     23 H7           4.1200     2.1260   -14.2270 hc         1 UNL       0.052033
     24 H8           5.1580     2.2230   -12.8250 hc         1 UNL       0.052033
     25 H9          11.3870     4.2830   -11.8600 hc         1 UNL       0.053700
     26 H10         11.9330     3.9420   -13.4840 hc         1 UNL       0.053700
     27 H11         10.9520     1.5180   -12.3880 hc         1 UNL       0.054700
     28 H12         13.7650     2.4670   -12.9260 hc         1 UNL       0.035200
     29 H13         12.6950     1.7510   -14.1080 hc         1 UNL       0.035200
     30 H14         13.2740     0.7980   -12.7630 hc         1 UNL       0.035200
     31 H15         12.9390     2.9360   -10.6160 hc         1 UNL       0.035200
     32 H16         12.4480     1.2670   -10.4530 hc         1 UNL       0.035200
     33 H17         11.2920     2.5480   -10.1810 hc         1 UNL       0.035200
@<TRIPOS>BOND
     1     1     7 1   
     2     1     2 ar  
     3     1     6 ar  
     4     2     3 ar  
     5     2    17 1   
     6     3     4 ar  
     7     3    18 1   
     8     4     5 ar  
     9     4    13 1   
    10     5     6 ar  
    11     5    19 1   
    12     6    20 1   
    13     7     9 1   
    14     7     8 1   
    15     7    21 1   
    16     8    22 1   
    17     8    23 1   
    18     8    24 1   
    19     9    11 1   
    20     9    10 2   
    21    11    12 1   
    22    13    14 1   
    23    13    25 1   
    24    13    26 1   
    25    14    15 1   
    26    14    16 1   
    27    14    27 1   
    28    15    28 1   
    29    15    29 1   
    30    15    30 1   
    31    16    31 1   
    32    16    32 1   
    33    16    33 1   
@<TRIPOS>SUBSTRUCTURE
     1 UNL         1 TEMP              0 ****  ****    0 ROOT
