@<TRIPOS>MOLECULE
Results/Site1/APO/ENB/ENB-Site1_1.pdb
 102 102 0 0 0
SMALL
GASTEIGER

@<TRIPOS>ATOM
      1  O         26.7120   26.1530   31.7610 O.3     1  UNL1       -0.4503
      2  O         27.3210   21.3240   33.5200 O.3     1  UNL1       -0.4503
      3  O         28.4780   22.0850   28.9990 O.3     1  UNL1       -0.4503
      4  O         28.6130   24.5660   32.5260 O.2     1  UNL1       -0.2715
      5  O         29.2920   25.0890   29.7090 O.2     1  UNL1       -0.2715
      6  O         28.6740   19.0060   31.7020 O.2     1  UNL1       -0.2715
      7  O         25.4280   24.4670   30.8520 O.2     1  UNL1       -0.2487
      8  O         29.4740   20.6770   34.0170 O.2     1  UNL1       -0.2487
      9  O         28.7350   20.6950   27.1890 O.2     1  UNL1       -0.2487
     10  N         27.5920   23.7720   34.4430 N.am    1  UNL1       -0.2878
     11  N         27.2300   24.8110   28.6810 N.am    1  UNL1       -0.2878
     12  N         27.1570   20.2810   30.4830 N.am    1  UNL1       -0.2878
     13  C         28.7320   22.8670   34.7000 C.3     1  UNL1        0.1250
     14  C         26.6810   25.9730   29.4090 C.3     1  UNL1        0.1250
     15  C         27.6890   19.8190   29.1840 C.3     1  UNL1        0.1250
     16  C         26.5450   25.6250   33.0950 C.3     1  UNL1        0.1808
     17  C         26.9250   20.0570   32.9680 C.3     1  UNL1        0.1808
     18  C         29.0940   23.1760   28.2880 C.3     1  UNL1        0.1808
     19  C         27.6690   24.6110   33.3220 C.2     1  UNL1        0.2571
     20  C         28.5600   24.4410   28.9550 C.2     1  UNL1        0.2571
     21  C         27.6780   19.7350   31.6690 C.2     1  UNL1        0.2571
     22  C         26.1740   25.4300   30.7340 C.2     1  UNL1        0.3288
     23  C         28.5690   21.5050   34.0300 C.2     1  UNL1        0.3288
     24  C         28.3450   20.9040   28.3330 C.2     1  UNL1        0.3288
     25  C         26.4450   23.7030   35.3530 C.3     1  UNL1        0.0041
     26  C         26.3440   24.1020   27.7540 C.3     1  UNL1        0.0041
     27  C         25.9860   21.1590   30.4610 C.3     1  UNL1        0.0041
     28  C         26.6770   26.7990   34.0530 C.3     1  UNL1       -0.0008
     29  C         28.0940   27.3700   34.0140 C.3     1  UNL1       -0.0588
     30  C         25.6540   27.8850   33.7230 C.3     1  UNL1       -0.0588
     31  C         25.5750   26.7440   28.6980 C.3     1  UNL1       -0.0177
     32  C         24.9570   27.7810   29.6340 C.3     1  UNL1       -0.0605
     33  C         26.1120   27.4140   27.4360 C.3     1  UNL1       -0.0605
     34  C         29.0460   22.6780   36.1840 C.3     1  UNL1       -0.0177
     35  C         30.5390   22.4220   36.3910 C.3     1  UNL1       -0.0605
     36  C         28.2220   21.5330   36.7690 C.3     1  UNL1       -0.0605
     37  C         30.6090   23.0590   28.4320 C.3     1  UNL1       -0.0008
     38  C         30.9700   22.0810   29.5490 C.3     1  UNL1       -0.0588
     39  C         31.2450   22.6230   27.1130 C.3     1  UNL1       -0.0588
     40  C         27.0210   18.9330   33.9990 C.3     1  UNL1       -0.0008
     41  C         26.7260   17.5820   33.3520 C.3     1  UNL1       -0.0588
     42  C         26.0660   19.1900   35.1640 C.3     1  UNL1       -0.0588
     43  C         26.6210   19.0790   28.3770 C.3     1  UNL1       -0.0177
     44  C         27.2590   18.3170   27.2190 C.3     1  UNL1       -0.0605
     45  C         25.8330   18.1320   29.2780 C.3     1  UNL1       -0.0605
     46 H          29.5667   23.3678   34.2557 H       1  UNL1        0.0619
     47 H          27.4619   26.6978   29.5079 H       1  UNL1        0.0619
     48 H          28.4771   19.1428   29.4421 H       1  UNL1        0.0619
     49 H          25.5997   25.1457   33.2418 H       1  UNL1        0.0835
     50 H          25.8915   20.1367   32.7027 H       1  UNL1        0.0835
     51 H          28.8742   23.1814   27.2408 H       1  UNL1        0.0835
     52 H          25.7028   24.4097   35.0455 H       1  UNL1        0.0429
     53 H          26.7649   23.9319   36.3481 H       1  UNL1        0.0429
     54 H          26.0300   22.7170   35.3297 H       1  UNL1        0.0429
     55 H          26.8754   23.2898   27.3035 H       1  UNL1        0.0429
     56 H          26.0110   24.7762   26.9928 H       1  UNL1        0.0429
     57 H          25.4986   23.7222   28.2887 H       1  UNL1        0.0429
     58 H          25.7764   21.4488   29.4525 H       1  UNL1        0.0429
     59 H          26.1829   22.0309   31.0491 H       1  UNL1        0.0429
     60 H          25.1427   20.6391   30.8653 H       1  UNL1        0.0429
     61 H          26.4827   26.4438   35.0434 H       1  UNL1        0.0336
     62 H          28.3062   27.7307   33.0292 H       1  UNL1        0.0234
     63 H          28.7946   26.6035   34.2717 H       1  UNL1        0.0234
     64 H          28.1733   28.1756   34.7137 H       1  UNL1        0.0234
     65 H          25.8318   28.2539   32.7345 H       1  UNL1        0.0234
     66 H          25.7464   28.6872   34.4250 H       1  UNL1        0.0234
     67 H          24.6675   27.4744   33.7784 H       1  UNL1        0.0234
     68 H          24.8123   26.0503   28.4118 H       1  UNL1        0.0319
     69 H          25.7063   28.4846   29.9313 H       1  UNL1        0.0233
     70 H          24.5645   27.2906   30.5002 H       1  UNL1        0.0233
     71 H          24.1673   28.2942   29.1261 H       1  UNL1        0.0233
     72 H          26.8775   28.1129   27.7014 H       1  UNL1        0.0233
     73 H          25.3162   27.9283   26.9390 H       1  UNL1        0.0233
     74 H          26.5188   26.6704   26.7829 H       1  UNL1        0.0233
     75 H          28.7831   23.5791   36.6977 H       1  UNL1        0.0319
     76 H          30.8205   21.5231   35.8834 H       1  UNL1        0.0233
     77 H          30.7417   22.3195   37.4366 H       1  UNL1        0.0233
     78 H          31.0997   23.2442   35.9979 H       1  UNL1        0.0233
     79 H          28.4713   20.6215   36.2672 H       1  UNL1        0.0233
     80 H          27.1804   21.7394   36.6370 H       1  UNL1        0.0233
     81 H          28.4369   21.4359   37.8127 H       1  UNL1        0.0233
     82 H          30.9952   24.0231   28.6894 H       1  UNL1        0.0336
     83 H          30.5912   21.1096   29.3087 H       1  UNL1        0.0234
     84 H          30.5376   22.4149   30.4690 H       1  UNL1        0.0234
     85 H          32.0340   22.0336   29.6515 H       1  UNL1        0.0234
     86 H          30.8707   21.6590   26.8380 H       1  UNL1        0.0234
     87 H          32.3076   22.5734   27.2286 H       1  UNL1        0.0234
     88 H          31.0021   23.3313   26.3486 H       1  UNL1        0.0234
     89 H          28.0205   18.9117   34.3803 H       1  UNL1        0.0336
     90 H          25.7290   17.5827   32.9636 H       1  UNL1        0.0234
     91 H          26.8232   16.8073   34.0837 H       1  UNL1        0.0234
     92 H          27.4190   17.4092   32.5553 H       1  UNL1        0.0234
     93 H          25.0596   19.2147   34.8014 H       1  UNL1        0.0234
     94 H          26.3040   20.1283   35.6199 H       1  UNL1        0.0234
     95 H          26.1657   18.4070   35.8864 H       1  UNL1        0.0234
     96 H          25.9418   19.7989   27.9705 H       1  UNL1        0.0319
     97 H          27.9434   17.5903   27.6043 H       1  UNL1        0.0233
     98 H          27.7847   19.0025   26.5876 H       1  UNL1        0.0233
     99 H          26.4963   17.8240   26.6532 H       1  UNL1        0.0233
    100 H          26.4956   17.4028   29.6952 H       1  UNL1        0.0233
    101 H          25.0769   17.6394   28.7031 H       1  UNL1        0.0233
    102 H          25.3741   18.6900   30.0673 H       1  UNL1        0.0233
@<TRIPOS>BOND
     1     1    22    1
     2     1    16    1
     3     2    17    1
     4     2    23    1
     5     3    18    1
     6     3    24    1
     7     4    19    2
     8     5    20    2
     9     6    21    2
    10     7    22    2
    11     8    23    2
    12     9    24    2
    13    10    19   am
    14    10    13    1
    15    10    25    1
    16    11    26    1
    17    11    20   am
    18    11    14    1
    19    12    15    1
    20    12    27    1
    21    12    21   am
    22    13    23    1
    23    13    34    1
    24    14    31    1
    25    14    22    1
    26    15    24    1
    27    15    43    1
    28    16    19    1
    29    16    28    1
    30    17    21    1
    31    17    40    1
    32    18    37    1
    33    18    20    1
    34    28    30    1
    35    28    29    1
    36    31    33    1
    37    31    32    1
    38    34    35    1
    39    34    36    1
    40    37    39    1
    41    37    38    1
    42    40    41    1
    43    40    42    1
    44    43    44    1
    45    43    45    1
    46    13    46    1
    47    14    47    1
    48    15    48    1
    49    16    49    1
    50    17    50    1
    51    18    51    1
    52    25    52    1
    53    25    53    1
    54    25    54    1
    55    26    55    1
    56    26    56    1
    57    26    57    1
    58    27    58    1
    59    27    59    1
    60    27    60    1
    61    28    61    1
    62    29    62    1
    63    29    63    1
    64    29    64    1
    65    30    65    1
    66    30    66    1
    67    30    67    1
    68    31    68    1
    69    32    69    1
    70    32    70    1
    71    32    71    1
    72    33    72    1
    73    33    73    1
    74    33    74    1
    75    34    75    1
    76    35    76    1
    77    35    77    1
    78    35    78    1
    79    36    79    1
    80    36    80    1
    81    36    81    1
    82    37    82    1
    83    38    83    1
    84    38    84    1
    85    38    85    1
    86    39    86    1
    87    39    87    1
    88    39    88    1
    89    40    89    1
    90    41    90    1
    91    41    91    1
    92    41    92    1
    93    42    93    1
    94    42    94    1
    95    42    95    1
    96    43    96    1
    97    44    97    1
    98    44    98    1
    99    44    99    1
   100    45   100    1
   101    45   101    1
   102    45   102    1
