Results/Site1/APO/ENB/ENB-Site1_1.pdb
 OpenBabel08312517013D

102102  0  0  1  0  0  0  0  0999 V2000
   26.7120   26.1530   31.7610 O   0  0  0  0  0  0  0  0  0  0  0  0
   27.3210   21.3240   33.5200 O   0  0  0  0  0  0  0  0  0  0  0  0
   28.4780   22.0850   28.9990 O   0  0  0  0  0  0  0  0  0  0  0  0
   28.6130   24.5660   32.5260 O   0  0  0  0  0  0  0  0  0  0  0  0
   29.2920   25.0890   29.7090 O   0  0  0  0  0  0  0  0  0  0  0  0
   28.6740   19.0060   31.7020 O   0  0  0  0  0  0  0  0  0  0  0  0
   25.4280   24.4670   30.8520 O   0  0  0  0  0  0  0  0  0  0  0  0
   29.4740   20.6770   34.0170 O   0  0  0  0  0  0  0  0  0  0  0  0
   28.7350   20.6950   27.1890 O   0  0  0  0  0  0  0  0  0  0  0  0
   27.5920   23.7720   34.4430 N   0  0  0  0  0  0  0  0  0  0  0  0
   27.2300   24.8110   28.6810 N   0  0  0  0  0  0  0  0  0  0  0  0
   27.1570   20.2810   30.4830 N   0  0  0  0  0  0  0  0  0  0  0  0
   28.7320   22.8670   34.7000 C   0  0  2  0  0  0  0  0  0  0  0  0
   26.6810   25.9730   29.4090 C   0  0  2  0  0  0  0  0  0  0  0  0
   27.6890   19.8190   29.1840 C   0  0  2  0  0  0  0  0  0  0  0  0
   26.5450   25.6250   33.0950 C   0  0  1  0  0  0  0  0  0  0  0  0
   26.9250   20.0570   32.9680 C   0  0  1  0  0  0  0  0  0  0  0  0
   29.0940   23.1760   28.2880 C   0  0  1  0  0  0  0  0  0  0  0  0
   27.6690   24.6110   33.3220 C   0  0  0  0  0  0  0  0  0  0  0  0
   28.5600   24.4410   28.9550 C   0  0  0  0  0  0  0  0  0  0  0  0
   27.6780   19.7350   31.6690 C   0  0  0  0  0  0  0  0  0  0  0  0
   26.1740   25.4300   30.7340 C   0  0  0  0  0  0  0  0  0  0  0  0
   28.5690   21.5050   34.0300 C   0  0  0  0  0  0  0  0  0  0  0  0
   28.3450   20.9040   28.3330 C   0  0  0  0  0  0  0  0  0  0  0  0
   26.4450   23.7030   35.3530 C   0  0  0  0  0  0  0  0  0  0  0  0
   26.3440   24.1020   27.7540 C   0  0  0  0  0  0  0  0  0  0  0  0
   25.9860   21.1590   30.4610 C   0  0  0  0  0  0  0  0  0  0  0  0
   26.6770   26.7990   34.0530 C   0  0  0  0  0  0  0  0  0  0  0  0
   28.0940   27.3700   34.0140 C   0  0  0  0  0  0  0  0  0  0  0  0
   25.6540   27.8850   33.7230 C   0  0  0  0  0  0  0  0  0  0  0  0
   25.5750   26.7440   28.6980 C   0  0  0  0  0  0  0  0  0  0  0  0
   24.9570   27.7810   29.6340 C   0  0  0  0  0  0  0  0  0  0  0  0
   26.1120   27.4140   27.4360 C   0  0  0  0  0  0  0  0  0  0  0  0
   29.0460   22.6780   36.1840 C   0  0  0  0  0  0  0  0  0  0  0  0
   30.5390   22.4220   36.3910 C   0  0  0  0  0  0  0  0  0  0  0  0
   28.2220   21.5330   36.7690 C   0  0  0  0  0  0  0  0  0  0  0  0
   30.6090   23.0590   28.4320 C   0  0  0  0  0  0  0  0  0  0  0  0
   30.9700   22.0810   29.5490 C   0  0  0  0  0  0  0  0  0  0  0  0
   31.2450   22.6230   27.1130 C   0  0  0  0  0  0  0  0  0  0  0  0
   27.0210   18.9330   33.9990 C   0  0  0  0  0  0  0  0  0  0  0  0
   26.7260   17.5820   33.3520 C   0  0  0  0  0  0  0  0  0  0  0  0
   26.0660   19.1900   35.1640 C   0  0  0  0  0  0  0  0  0  0  0  0
   26.6210   19.0790   28.3770 C   0  0  0  0  0  0  0  0  0  0  0  0
   27.2590   18.3170   27.2190 C   0  0  0  0  0  0  0  0  0  0  0  0
   25.8330   18.1320   29.2780 C   0  0  0  0  0  0  0  0  0  0  0  0
   29.5667   23.3678   34.2557 H   0  0  0  0  0  0  0  0  0  0  0  0
   27.4619   26.6978   29.5079 H   0  0  0  0  0  0  0  0  0  0  0  0
   28.4771   19.1428   29.4421 H   0  0  0  0  0  0  0  0  0  0  0  0
   25.5997   25.1457   33.2418 H   0  0  0  0  0  0  0  0  0  0  0  0
   25.8915   20.1367   32.7027 H   0  0  0  0  0  0  0  0  0  0  0  0
   28.8742   23.1814   27.2408 H   0  0  0  0  0  0  0  0  0  0  0  0
   25.7028   24.4097   35.0455 H   0  0  0  0  0  0  0  0  0  0  0  0
   26.7649   23.9319   36.3481 H   0  0  0  0  0  0  0  0  0  0  0  0
   26.0300   22.7170   35.3297 H   0  0  0  0  0  0  0  0  0  0  0  0
   26.8754   23.2898   27.3035 H   0  0  0  0  0  0  0  0  0  0  0  0
   26.0110   24.7762   26.9928 H   0  0  0  0  0  0  0  0  0  0  0  0
   25.4986   23.7222   28.2887 H   0  0  0  0  0  0  0  0  0  0  0  0
   25.7764   21.4488   29.4525 H   0  0  0  0  0  0  0  0  0  0  0  0
   26.1829   22.0309   31.0491 H   0  0  0  0  0  0  0  0  0  0  0  0
   25.1427   20.6391   30.8653 H   0  0  0  0  0  0  0  0  0  0  0  0
   26.4827   26.4438   35.0434 H   0  0  0  0  0  0  0  0  0  0  0  0
   28.3062   27.7307   33.0292 H   0  0  0  0  0  0  0  0  0  0  0  0
   28.7946   26.6035   34.2717 H   0  0  0  0  0  0  0  0  0  0  0  0
   28.1733   28.1756   34.7137 H   0  0  0  0  0  0  0  0  0  0  0  0
   25.8318   28.2539   32.7345 H   0  0  0  0  0  0  0  0  0  0  0  0
   25.7464   28.6872   34.4250 H   0  0  0  0  0  0  0  0  0  0  0  0
   24.6675   27.4744   33.7784 H   0  0  0  0  0  0  0  0  0  0  0  0
   24.8123   26.0503   28.4118 H   0  0  0  0  0  0  0  0  0  0  0  0
   25.7063   28.4846   29.9313 H   0  0  0  0  0  0  0  0  0  0  0  0
   24.5645   27.2906   30.5002 H   0  0  0  0  0  0  0  0  0  0  0  0
   24.1673   28.2942   29.1261 H   0  0  0  0  0  0  0  0  0  0  0  0
   26.8775   28.1129   27.7014 H   0  0  0  0  0  0  0  0  0  0  0  0
   25.3162   27.9283   26.9390 H   0  0  0  0  0  0  0  0  0  0  0  0
   26.5188   26.6704   26.7829 H   0  0  0  0  0  0  0  0  0  0  0  0
   28.7831   23.5791   36.6977 H   0  0  0  0  0  0  0  0  0  0  0  0
   30.8205   21.5231   35.8834 H   0  0  0  0  0  0  0  0  0  0  0  0
   30.7417   22.3195   37.4366 H   0  0  0  0  0  0  0  0  0  0  0  0
   31.0997   23.2442   35.9979 H   0  0  0  0  0  0  0  0  0  0  0  0
   28.4713   20.6215   36.2672 H   0  0  0  0  0  0  0  0  0  0  0  0
   27.1804   21.7394   36.6370 H   0  0  0  0  0  0  0  0  0  0  0  0
   28.4369   21.4359   37.8127 H   0  0  0  0  0  0  0  0  0  0  0  0
   30.9952   24.0231   28.6894 H   0  0  0  0  0  0  0  0  0  0  0  0
   30.5912   21.1096   29.3087 H   0  0  0  0  0  0  0  0  0  0  0  0
   30.5376   22.4149   30.4690 H   0  0  0  0  0  0  0  0  0  0  0  0
   32.0340   22.0336   29.6515 H   0  0  0  0  0  0  0  0  0  0  0  0
   30.8707   21.6590   26.8380 H   0  0  0  0  0  0  0  0  0  0  0  0
   32.3076   22.5734   27.2286 H   0  0  0  0  0  0  0  0  0  0  0  0
   31.0021   23.3313   26.3486 H   0  0  0  0  0  0  0  0  0  0  0  0
   28.0205   18.9117   34.3803 H   0  0  0  0  0  0  0  0  0  0  0  0
   25.7290   17.5827   32.9636 H   0  0  0  0  0  0  0  0  0  0  0  0
   26.8232   16.8073   34.0837 H   0  0  0  0  0  0  0  0  0  0  0  0
   27.4190   17.4092   32.5553 H   0  0  0  0  0  0  0  0  0  0  0  0
   25.0596   19.2147   34.8014 H   0  0  0  0  0  0  0  0  0  0  0  0
   26.3040   20.1283   35.6199 H   0  0  0  0  0  0  0  0  0  0  0  0
   26.1657   18.4070   35.8864 H   0  0  0  0  0  0  0  0  0  0  0  0
   25.9418   19.7989   27.9705 H   0  0  0  0  0  0  0  0  0  0  0  0
   27.9434   17.5903   27.6043 H   0  0  0  0  0  0  0  0  0  0  0  0
   27.7847   19.0025   26.5876 H   0  0  0  0  0  0  0  0  0  0  0  0
   26.4963   17.8240   26.6532 H   0  0  0  0  0  0  0  0  0  0  0  0
   26.4956   17.4028   29.6952 H   0  0  0  0  0  0  0  0  0  0  0  0
   25.0769   17.6394   28.7031 H   0  0  0  0  0  0  0  0  0  0  0  0
   25.3741   18.6900   30.0673 H   0  0  0  0  0  0  0  0  0  0  0  0
  1 22  1  0  0  0  0
  1 16  1  0  0  0  0
  2 17  1  0  0  0  0
  2 23  1  0  0  0  0
  3 18  1  0  0  0  0
  3 24  1  0  0  0  0
  4 19  2  0  0  0  0
  5 20  2  0  0  0  0
  6 21  2  0  0  0  0
  7 22  2  0  0  0  0
  8 23  2  0  0  0  0
  9 24  2  0  0  0  0
 10 19  1  0  0  0  0
 10 13  1  0  0  0  0
 10 25  1  0  0  0  0
 11 26  1  0  0  0  0
 11 20  1  0  0  0  0
 11 14  1  0  0  0  0
 12 15  1  0  0  0  0
 12 27  1  0  0  0  0
 12 21  1  0  0  0  0
 13 23  1  0  0  0  0
 13 34  1  0  0  0  0
 13 46  1  6  0  0  0
 14 31  1  0  0  0  0
 14 22  1  0  0  0  0
 14 47  1  1  0  0  0
 15 24  1  0  0  0  0
 15 43  1  0  0  0  0
 15 48  1  1  0  0  0
 16 19  1  0  0  0  0
 16 28  1  0  0  0  0
 16 49  1  1  0  0  0
 17 21  1  0  0  0  0
 17 40  1  0  0  0  0
 17 50  1  6  0  0  0
 18 37  1  0  0  0  0
 18 20  1  0  0  0  0
 18 51  1  6  0  0  0
 25 52  1  0  0  0  0
 25 53  1  0  0  0  0
 25 54  1  0  0  0  0
 26 55  1  0  0  0  0
 26 56  1  0  0  0  0
 26 57  1  0  0  0  0
 27 58  1  0  0  0  0
 27 59  1  0  0  0  0
 27 60  1  0  0  0  0
 28 30  1  0  0  0  0
 28 29  1  0  0  0  0
 28 61  1  0  0  0  0
 29 62  1  0  0  0  0
 29 63  1  0  0  0  0
 29 64  1  0  0  0  0
 30 65  1  0  0  0  0
 30 66  1  0  0  0  0
 30 67  1  0  0  0  0
 31 33  1  0  0  0  0
 31 32  1  0  0  0  0
 31 68  1  0  0  0  0
 32 69  1  0  0  0  0
 32 70  1  0  0  0  0
 32 71  1  0  0  0  0
 33 72  1  0  0  0  0
 33 73  1  0  0  0  0
 33 74  1  0  0  0  0
 34 35  1  0  0  0  0
 34 36  1  0  0  0  0
 34 75  1  0  0  0  0
 35 76  1  0  0  0  0
 35 77  1  0  0  0  0
 35 78  1  0  0  0  0
 36 79  1  0  0  0  0
 36 80  1  0  0  0  0
 36 81  1  0  0  0  0
 37 39  1  0  0  0  0
 37 38  1  0  0  0  0
 37 82  1  0  0  0  0
 38 83  1  0  0  0  0
 38 84  1  0  0  0  0
 38 85  1  0  0  0  0
 39 86  1  0  0  0  0
 39 87  1  0  0  0  0
 39 88  1  0  0  0  0
 40 41  1  0  0  0  0
 40 42  1  0  0  0  0
 40 89  1  0  0  0  0
 41 90  1  0  0  0  0
 41 91  1  0  0  0  0
 41 92  1  0  0  0  0
 42 93  1  0  0  0  0
 42 94  1  0  0  0  0
 42 95  1  0  0  0  0
 43 44  1  0  0  0  0
 43 45  1  0  0  0  0
 43 96  1  0  0  0  0
 44 97  1  0  0  0  0
 44 98  1  0  0  0  0
 44 99  1  0  0  0  0
 45100  1  0  0  0  0
 45101  1  0  0  0  0
 45102  1  0  0  0  0
M  END
